Version 4
SHEET 1 4148 2324
WIRE 2112 -864 384 -864
WIRE 384 -800 384 -864
WIRE 3104 -640 3024 -640
WIRE 3136 -640 3104 -640
WIRE 384 -608 384 -720
WIRE 624 -608 384 -608
WIRE 3104 -608 3104 -640
WIRE 1888 -592 1888 -656
WIRE 3024 -592 3024 -640
WIRE 624 -560 624 -608
WIRE 3024 -512 3024 -528
WIRE 3104 -512 3104 -528
WIRE 3104 -512 3024 -512
WIRE 3136 -512 3104 -512
WIRE 1776 -480 1776 -496
WIRE 1888 -464 1888 -512
WIRE 1888 -464 1808 -464
WIRE 624 -448 624 -480
WIRE 864 -448 624 -448
WIRE 1392 -448 944 -448
WIRE 1408 -448 1392 -448
WIRE 1520 -448 1472 -448
WIRE 1648 -448 1584 -448
WIRE 1744 -448 1648 -448
WIRE 1888 -432 1808 -432
WIRE 1776 -400 1776 -416
WIRE 1392 -384 1392 -448
WIRE 4016 -384 3984 -384
WIRE 3984 -352 3984 -384
WIRE 4080 -352 3984 -352
WIRE 3984 -336 3984 -352
WIRE 1648 -320 1648 -448
WIRE 1680 -320 1648 -320
WIRE 1888 -320 1888 -432
WIRE 1888 -320 1744 -320
WIRE 4080 -320 4080 -352
WIRE 1392 -272 1392 -320
WIRE 1440 -272 1392 -272
WIRE 1888 -272 1888 -320
WIRE 1888 -272 1520 -272
WIRE 1888 -240 1888 -272
WIRE 3984 -240 3984 -256
WIRE 4080 -240 4080 -256
WIRE 4080 -240 3984 -240
WIRE 3984 -208 3984 -240
WIRE 1888 -112 1888 -160
WIRE 1920 -112 1888 -112
WIRE 624 -48 624 -448
WIRE 672 -48 624 -48
WIRE 3312 0 3312 -80
WIRE 672 64 672 -48
WIRE 3312 112 3312 80
WIRE 384 128 384 -608
WIRE 624 128 384 128
WIRE 1088 128 720 128
WIRE 1392 128 1088 128
WIRE 2112 128 1472 128
WIRE 1088 192 1088 128
WIRE 3008 336 2960 336
WIRE 2784 416 2656 416
WIRE 1808 464 1328 464
WIRE 1920 464 1888 464
WIRE 2016 464 1920 464
WIRE 2176 464 2016 464
WIRE -352 480 -352 464
WIRE 1120 480 1056 480
WIRE 1920 496 1920 464
WIRE 2848 496 2848 480
WIRE 3008 496 2960 496
WIRE -352 592 -352 560
WIRE -288 592 -352 592
WIRE 2016 592 2016 464
WIRE -352 624 -352 592
WIRE -288 624 -288 592
WIRE 2304 656 2304 576
WIRE 2112 688 2112 672
WIRE 2176 704 2176 464
WIRE 2176 704 2144 704
WIRE -352 720 -352 704
WIRE 1120 720 1120 480
WIRE 1264 720 1120 720
WIRE 1808 720 1344 720
WIRE 1920 720 1920 640
WIRE 1920 720 1872 720
WIRE 2016 720 2016 656
WIRE 2016 720 1920 720
WIRE 2080 720 2016 720
WIRE 2304 736 2144 736
WIRE 2112 768 2112 752
WIRE 512 912 480 912
WIRE 256 944 224 944
WIRE 560 976 560 944
WIRE 304 1008 304 976
WIRE 480 1088 480 912
WIRE 560 1088 560 1056
WIRE 560 1088 480 1088
WIRE 1120 1088 1120 720
WIRE 224 1120 224 944
WIRE 304 1120 304 1088
WIRE 304 1120 224 1120
WIRE 560 1152 560 1088
WIRE 304 1184 304 1120
FLAG -288 624 0
FLAG -352 464 +V
FLAG 1776 -400 +V
FLAG 2112 672 +V
FLAG -352 720 -V
FLAG 1776 -496 -V
FLAG 2112 768 -V
FLAG 2112 128 out-
IOPIN 2112 128 Out
FLAG 2304 576 out
IOPIN 2304 576 Out
FLAG 3312 -80 0
FLAG 560 848 +V
FLAG 560 1152 -V
FLAG 304 880 +V
FLAG 304 1184 -V
FLAG 3984 -576 out-
IOPIN 3984 -576 Out
FLAG 3312 240 out
IOPIN 3312 240 Out
FLAG 1088 192 0
FLAG 2112 -864 out+
IOPIN 2112 -864 Out
FLAG 3984 -208 out+
IOPIN 3984 -208 Out
FLAG 2848 496 0
FLAG 3008 496 out-
IOPIN 3008 496 Out
FLAG 3008 336 out+
IOPIN 3008 336 Out
FLAG 2928 512 -V
FLAG 2928 320 +V
FLAG 1888 -656 0
FLAG 3136 -640 out-
IOPIN 3136 -640 Out
FLAG 3136 -512 out+
IOPIN 3136 -512 Out
FLAG 1888 -32 out-
IOPIN 1888 -32 Out
FLAG 1920 -112 out+
IOPIN 1920 -112 Out
SYMBOL voltage -352 464 M0
WINDOW 123 0 0 Left 0
WINDOW 39 0 0 Left 0
SYMATTR InstName V1
SYMATTR Value 12
SYMBOL Misc\\EuropeanResistor 1376 144 R270
WINDOW 0 27 56 VTop 2
WINDOW 3 -14 56 VBottom 2
SYMATTR InstName R9
SYMATTR Value 0.1
SYMBOL voltage 3040 688 R0
WINDOW 123 0 0 Left 0
WINDOW 39 0 0 Left 0
SYMATTR InstName V3
SYMATTR Value PULSE(0 12 0 10m 10m 0 20m 1)
SYMBOL voltage 2304 640 M0
WINDOW 123 0 0 Left 0
WINDOW 39 0 0 Left 0
SYMATTR InstName V4
SYMATTR Value 0.1
SYMBOL current 624 -480 M180
WINDOW 123 0 0 Left 0
WINDOW 39 24 108 Left 2
WINDOW 0 24 -10 Left 2
SYMATTR InstName I1
SYMATTR Value 1m
SYMBOL Misc\\EuropeanResistor 4000 -352 M0
SYMATTR InstName RL
SYMATTR Value r=if(time>3m&time<7m,1,1k)
SYMBOL voltage -352 608 M0
WINDOW 123 0 0 Left 0
WINDOW 39 0 0 Left 0
SYMATTR InstName V2
SYMATTR Value 25
SYMBOL Misc\\EuropeanResistor 1904 -144 R180
WINDOW 0 31 76 Left 2
WINDOW 3 31 40 Left 2
SYMATTR InstName R11
SYMATTR Value 2k
SYMBOL Misc\\EuropeanResistor 1792 480 R270
WINDOW 0 27 56 VTop 2
WINDOW 3 5 56 VBottom 2
SYMATTR InstName R10
SYMATTR Value 10k
SYMBOL cap 1376 -384 R0
SYMATTR InstName C2
SYMATTR Value 1n
SYMBOL Misc\\EuropeanResistor 1424 -256 R270
WINDOW 0 27 56 VTop 2
WINDOW 3 5 56 VBottom 2
SYMATTR InstName R12
SYMATTR Value 2k
SYMBOL cap 1936 576 M0
SYMATTR InstName C3
SYMATTR Value 1n
SYMBOL Misc\\EuropeanResistor 1936 480 M0
SYMATTR InstName R13
SYMATTR Value 10k
SYMBOL schottky 2032 592 M0
SYMATTR InstName D6
SYMATTR Value BAT54
SYMATTR Description Diode
SYMATTR Type diode
SYMBOL cap 4064 -320 R0
SYMATTR InstName C4
SYMATTR Value 100n
SYMBOL LED 1872 736 M270
WINDOW 0 72 32 VTop 2
WINDOW 3 0 32 VBottom 2
SYMATTR InstName D7
SYMATTR Value NSCW100
SYMATTR Description Diode
SYMATTR Type diode
SYMBOL LED 1472 -432 M270
WINDOW 0 72 32 VTop 2
WINDOW 3 0 32 VBottom 2
SYMATTR InstName D2
SYMATTR Value NSCW100
SYMATTR Description Diode
SYMATTR Type diode
SYMBOL voltage 3312 -16 R0
WINDOW 123 0 0 Left 0
WINDOW 39 0 0 Left 0
SYMATTR InstName V7
SYMATTR Value PULSE(0 10 0 20m 0)
SYMBOL res 3296 96 R0
SYMATTR InstName R2
SYMATTR Value 10
SYMBOL njf 512 848 R0
SYMATTR InstName J1
SYMATTR Value J202
SYMBOL res 544 960 R0
SYMATTR InstName R3
SYMATTR Value 850
SYMBOL njf 256 880 R0
SYMATTR InstName J2
SYMATTR Value J202
SYMBOL res 288 992 R0
SYMATTR InstName R4
SYMATTR Value 223
SYMBOL pnp 240 -128 M90
SYMATTR InstName Q2
SYMATTR Value 2N2907
SYMBOL res 960 -464 R90
WINDOW 0 0 56 VBottom 2
WINDOW 3 32 56 VTop 2
SYMATTR InstName R7
SYMATTR Value 150
SYMBOL res 1360 704 R90
WINDOW 0 0 56 VBottom 2
WINDOW 3 32 56 VTop 2
SYMATTR InstName R8
SYMATTR Value 150
SYMBOL res 1072 464 R90
WINDOW 0 0 56 VBottom 2
WINDOW 3 32 56 VTop 2
SYMATTR InstName R14
SYMATTR Value 100
SYMBOL voltage 1888 -496 R180
WINDOW 123 0 0 Left 0
WINDOW 39 0 0 Left 0
SYMATTR InstName V5
SYMATTR Value 2
SYMBOL voltage 384 -816 M0
WINDOW 123 0 0 Left 0
WINDOW 39 0 0 Left 0
SYMATTR InstName V6
SYMATTR Value 10
SYMBOL OpAmps\\AD8421 2928 416 M0
SYMATTR InstName U3
SYMBOL res 3088 -624 R0
SYMATTR InstName R1
SYMATTR Value 100
SYMBOL cap 3008 -592 R0
SYMATTR InstName C1
SYMATTR Value 1µ
SYMATTR SpiceLine Rser=0.1
SYMBOL LED 1584 -432 M270
WINDOW 0 72 32 VTop 2
WINDOW 3 0 32 VBottom 2
SYMATTR InstName D3
SYMATTR Value NSCW100
SYMATTR Description Diode
SYMATTR Type diode
SYMBOL OpAmps\\LT1037 1776 -384 R180
SYMATTR InstName U4
SYMBOL OpAmps\\LT1037 2112 656 M0
SYMATTR InstName U5
SYMBOL npn 720 64 R90
SYMATTR InstName Q1
SYMATTR Value 2N2222
SYMBOL schottky 1680 -304 R270
WINDOW 0 32 32 VTop 2
WINDOW 3 0 32 VBottom 2
SYMATTR InstName D1
SYMATTR Value 1N5819
SYMATTR Description Diode
SYMATTR Type diode
TEXT -144 992 Left 2 !.tran 10m uic
TEXT -392 392 Left 5 ;floating
