Version 4
SHEET 1 1260 772
WIRE 16 -160 -112 -160
WIRE 176 -160 96 -160
WIRE 368 -160 176 -160
WIRE 912 -160 448 -160
WIRE 176 -64 176 -160
WIRE 208 -64 176 -64
WIRE 304 -64 272 -64
WIRE 208 48 160 48
WIRE 304 64 304 -64
WIRE 304 64 272 64
WIRE 368 64 304 64
WIRE 912 64 912 -160
WIRE 912 64 432 64
WIRE 176 80 176 -64
WIRE 208 80 176 80
WIRE -304 208 -304 192
WIRE -304 208 -368 208
WIRE -112 224 -112 -160
WIRE 16 224 -112 224
WIRE -368 240 -368 208
WIRE -304 240 -304 208
WIRE -112 240 -112 224
WIRE 752 288 176 288
WIRE 672 368 544 368
WIRE -112 384 -112 320
WIRE 176 400 176 288
WIRE 208 400 176 400
WIRE 320 400 272 400
WIRE 672 400 672 368
WIRE 912 416 912 64
WIRE 1040 416 912 416
WIRE 1152 416 1040 416
WIRE 1040 464 1040 416
WIRE 176 480 176 400
WIRE 208 480 176 480
WIRE 320 496 320 400
WIRE 320 496 272 496
WIRE 368 496 320 496
WIRE 496 496 432 496
WIRE 544 496 544 368
WIRE 544 496 496 496
WIRE 672 496 672 480
WIRE 752 496 752 288
WIRE 752 496 672 496
WIRE 16 512 16 224
WIRE 208 512 16 512
WIRE 496 528 496 496
WIRE 672 528 672 496
WIRE 1040 560 1040 544
WIRE 496 624 496 608
WIRE 672 656 672 608
FLAG -368 240 0
FLAG 240 512 V+
FLAG 240 48 V+
FLAG -304 112 V+
FLAG 240 480 V-
FLAG -304 320 V-
FLAG -112 384 0
FLAG 240 80 V-
FLAG 1152 416 OUT
IOPIN 1152 416 Out
FLAG 160 48 0
FLAG 1040 560 0
FLAG 496 624 0
FLAG 672 656 0
SYMBOL AutoGenerated\\OPA189 272 64 R0
WINDOW 0 -9 -33 Bottom 2
WINDOW 3 0 56 Top 2
SYMATTR InstName U1
SYMBOL AutoGenerated\\OPA189 272 496 M180
WINDOW 0 7 -28 Bottom 2
WINDOW 3 0 56 Top 2
SYMATTR InstName U2
SYMBOL voltage -304 96 R0
WINDOW 123 0 0 Left 0
WINDOW 39 0 0 Left 0
SYMATTR InstName V1
SYMATTR Value 15
SYMBOL voltage -304 224 R0
WINDOW 123 0 0 Left 0
WINDOW 39 0 0 Left 0
SYMATTR InstName V2
SYMATTR Value 3
SYMBOL voltage -112 224 R0
WINDOW 3 -73 126 Left 2
WINDOW 123 0 0 Left 0
WINDOW 39 0 0 Left 0
SYMATTR InstName V3
SYMATTR Value SINE(0 1m 100)
SYMBOL diode 368 512 R270
WINDOW 0 32 32 VTop 2
WINDOW 3 0 32 VBottom 2
SYMATTR InstName D1
SYMATTR Value 1N914
SYMBOL diode 368 80 R270
WINDOW 0 32 32 VTop 2
WINDOW 3 0 32 VBottom 2
SYMATTR InstName D2
SYMATTR Value 1N914
SYMBOL res 464 -176 R90
WINDOW 0 0 56 VBottom 2
WINDOW 3 32 56 VTop 2
SYMATTR InstName R1
SYMATTR Value 5k
SYMBOL res 112 -176 R90
WINDOW 0 0 56 VBottom 2
WINDOW 3 32 56 VTop 2
SYMATTR InstName R2
SYMATTR Value 1k
SYMBOL res 1024 448 R0
SYMATTR InstName R4
SYMATTR Value 1k
SYMBOL res 480 512 R0
SYMATTR InstName R6
SYMATTR Value 2k
SYMBOL res 656 384 R0
SYMATTR InstName R7
SYMATTR Value 4k
SYMBOL res 656 512 R0
SYMATTR InstName R8
SYMATTR Value 1k
TEXT -388 586 Left 2 !.tran 0.03
TEXT -384 640 Left 2 !.TEMP 25
