Version 4
SHEET 1 8456 1444
WIRE 96 -656 96 -672
WIRE 224 -576 224 -624
WIRE 96 -528 96 -576
WIRE 160 -528 96 -528
WIRE 352 -512 352 -560
WIRE 224 -464 224 -480
WIRE 256 -464 224 -464
WIRE 288 -464 256 -464
WIRE 256 -432 256 -464
WIRE 96 -400 96 -528
WIRE 176 -400 96 -400
WIRE 96 -384 96 -400
WIRE 256 -336 256 -352
WIRE 352 -336 352 -416
WIRE 352 -336 256 -336
WIRE 96 -272 96 -304
WIRE 96 -272 0 -272
WIRE -240 -112 -384 -112
WIRE -208 -112 -240 -112
WIRE -64 -112 -128 -112
WIRE 0 -64 0 -272
WIRE -240 -48 -240 -112
WIRE 176 48 176 -400
WIRE 96 64 96 -272
WIRE -240 80 -240 32
WIRE 0 112 0 16
WIRE 48 112 0 112
WIRE -384 192 -384 -112
WIRE -336 192 -384 192
WIRE -240 208 -240 144
WIRE -240 208 -272 208
WIRE -160 208 -240 208
WIRE 96 208 96 160
WIRE 96 208 -80 208
WIRE 176 208 176 112
WIRE 176 208 96 208
WIRE 352 208 352 -336
WIRE 448 208 352 208
WIRE 688 208 528 208
WIRE -336 224 -384 224
WIRE 688 288 688 208
WIRE 352 304 352 208
WIRE 352 304 240 304
WIRE 240 352 240 304
WIRE 1456 352 1456 336
WIRE -384 400 -384 224
WIRE 352 416 352 304
WIRE 688 416 688 352
WIRE -704 464 -704 448
WIRE -704 464 -800 464
WIRE -592 464 -592 432
WIRE 240 464 240 432
WIRE 240 464 208 464
WIRE 288 464 240 464
WIRE 1456 464 1456 432
WIRE -704 480 -704 464
WIRE -384 512 -384 480
WIRE 96 512 96 208
WIRE 144 512 96 512
WIRE 432 512 352 512
WIRE 480 512 432 512
WIRE 560 512 480 512
WIRE -800 528 -800 464
WIRE 352 528 352 512
WIRE 560 528 560 512
WIRE 432 544 432 512
WIRE 480 544 480 512
WIRE 208 608 208 560
WIRE 352 624 352 608
WIRE 432 624 432 608
WIRE 480 624 480 608
WIRE 560 624 560 608
WIRE 624 624 560 624
WIRE 768 624 688 624
WIRE 560 704 560 624
WIRE 592 704 560 704
WIRE 768 720 768 624
WIRE 768 720 656 720
WIRE 592 736 528 736
WIRE 528 768 528 736
WIRE 768 784 768 720
WIRE 528 880 528 848
WIRE 0 1088 0 112
WIRE 768 1088 768 848
WIRE 768 1088 0 1088
FLAG -800 528 0
FLAG -704 368 V+
FLAG -704 560 V-
FLAG -304 176 V+
FLAG -304 240 V-
FLAG 688 416 0
FLAG -384 592 0
FLAG 1456 336 out2
FLAG -64 -112 out2
FLAG 352 624 0
FLAG 208 608 V-
FLAG -592 432 Vpower
FLAG -592 544 0
FLAG 352 -560 Vpower
FLAG 224 -624 V+
FLAG 96 -672 V+
FLAG 816 544 0
FLAG 432 624 0
FLAG 624 752 V+
FLAG 624 688 V-
FLAG 528 880 0
FLAG 480 624 0
FLAG 1456 544 0
DATAFLAG 608 208 ""
SYMBOL voltage -704 464 R0
WINDOW 123 0 0 Left 0
WINDOW 39 0 0 Left 0
SYMATTR InstName V3
SYMATTR Value 5
SYMBOL voltage -704 352 R0
WINDOW 123 0 0 Left 0
WINDOW 39 0 0 Left 0
SYMATTR InstName V4
SYMATTR Value 15
SYMBOL cap -256 80 R0
SYMATTR InstName C5
SYMATTR Value 1n
SYMBOL res -112 -128 R90
WINDOW 0 -16 53 VBottom 2
WINDOW 3 32 56 VTop 2
SYMATTR InstName R14
SYMATTR Value 500
SYMBOL res -368 496 R180
WINDOW 0 36 76 Left 2
WINDOW 3 36 40 Left 2
SYMATTR InstName R15
SYMATTR Value 10k
SYMBOL res 432 224 R270
WINDOW 0 32 56 VTop 2
WINDOW 3 0 56 VBottom 2
SYMATTR InstName R17
SYMATTR Value 0.2
SYMBOL cap 672 288 R0
SYMATTR InstName C4
SYMATTR Value 1µ
SYMATTR SpiceLine Rser=0.05
SYMBOL voltage -384 496 R0
WINDOW 123 0 0 Left 0
WINDOW 39 0 0 Left 0
SYMATTR InstName V5
SYMATTR Value 1
SYMBOL OpAmps\\LT1468 -304 144 R0
SYMATTR InstName U2
SYMBOL res -64 192 R90
WINDOW 0 0 56 VBottom 2
WINDOW 3 32 56 VTop 2
SYMATTR InstName R2
SYMATTR Value 100
SYMBOL npn 288 -512 R0
SYMATTR InstName Q1
SYMATTR Value 2SCR512P
SYMBOL pnp 288 512 M180
WINDOW 0 61 36 Left 2
WINDOW 3 -48 -33 Left 2
SYMATTR InstName Q2
SYMATTR Value D45H11
SYMBOL voltage -592 448 R0
WINDOW 123 0 0 Left 0
WINDOW 39 0 0 Left 0
SYMATTR InstName V10
SYMATTR Value 15
SYMBOL res -256 -64 R0
SYMATTR InstName R5
SYMATTR Value 100
SYMBOL current 96 -656 R0
WINDOW 0 -50 -1 Left 2
WINDOW 3 -78 64 Left 2
WINDOW 123 0 0 Left 0
WINDOW 39 0 0 Left 0
SYMATTR InstName I2
SYMATTR Value 1m
SYMBOL current 816 464 R0
WINDOW 123 0 0 Left 0
WINDOW 39 24 108 Left 2
SYMATTR SpiceLine load
SYMATTR InstName I3
SYMATTR Value PULSE(1m 1 0.05m 100n 100n 0.1m 5m)
SYMBOL npn 160 -576 R0
SYMATTR InstName Q3
SYMATTR Value BC847C
SYMBOL res 240 -448 R0
SYMATTR InstName R7
SYMATTR Value 100
SYMBOL res 224 336 R0
SYMATTR InstName R8
SYMATTR Value 100
SYMBOL pnp 144 560 M180
SYMATTR InstName Q4
SYMATTR Value BC857C
SYMBOL res 336 512 R0
SYMATTR InstName R9
SYMATTR Value 10
SYMBOL schottky 416 544 R0
WINDOW 3 -38 -61 Left 2
SYMATTR InstName D1
SYMATTR Value PDS5100
SYMATTR Description Diode
SYMATTR Type diode
SYMBOL TL431 96 112 R0
WINDOW 0 59 -12 Left 0
SYMATTR InstName X1
SYMBOL res 80 -400 R0
SYMATTR InstName R1
SYMATTR Value 100
SYMBOL cap 160 48 R0
SYMATTR InstName C1
SYMATTR Value 1µ
SYMBOL res -16 -80 R0
SYMATTR InstName R3
SYMATTR Value 10k
SYMBOL OpAmps\\LT1013 624 784 M180
SYMATTR InstName U1
SYMBOL voltage 528 752 R0
WINDOW 123 0 0 Left 0
WINDOW 39 0 0 Left 0
SYMATTR InstName V1
SYMATTR Value 0.1
SYMBOL schottky 784 848 R180
WINDOW 0 24 64 Left 2
WINDOW 3 24 0 Left 2
SYMATTR InstName D2
SYMATTR Value 1N5817
SYMATTR Description Diode
SYMATTR Type diode
SYMBOL res 544 512 R0
SYMATTR InstName R4
SYMATTR Value 1k
SYMBOL cap 688 608 R90
WINDOW 0 0 32 VBottom 2
WINDOW 3 32 32 VTop 2
SYMATTR InstName C2
SYMATTR Value 500p
SYMBOL cap 464 544 R0
SYMATTR InstName C3
SYMATTR Value 1µ
SYMBOL voltage 1456 448 R0
WINDOW 123 0 0 Left 0
WINDOW 39 0 0 Left 0
SYMATTR InstName V2
SYMATTR Value 2
SYMBOL res 1440 336 R0
SYMATTR InstName R6
SYMATTR Value 100
TEXT -824 648 Left 2 !.tran 500u
TEXT -376 496 Left 2 ;Vset
TEXT 448 128 Left 2 ;SHUNT
TEXT 640 392 VLeft 2 ;CAP 0p-100u
TEXT -880 704 Left 2 !;.step param VBIAS list 0 0.6 1 1.1 1.2 1.5
TEXT -656 648 Left 2 !.TEMP 90
