Version 4
SHEET 1 2092 692
WIRE 960 -32 864 -32
WIRE 80 -16 -112 -16
WIRE 240 -16 80 -16
WIRE 864 0 864 -32
WIRE 80 16 80 -16
WIRE 1152 96 1056 96
WIRE 960 112 960 -32
WIRE 240 128 240 -16
WIRE 1072 128 1056 128
WIRE 1072 160 1072 128
WIRE 80 176 80 96
WIRE 176 176 80 176
WIRE 1152 192 1152 96
WIRE 1248 192 1152 192
WIRE 1376 192 1328 192
WIRE 1648 192 1424 192
WIRE -112 208 -112 -16
WIRE 1648 224 1648 192
WIRE 1152 240 1152 192
WIRE 1152 240 1072 240
WIRE 1376 240 1376 192
WIRE 80 256 80 176
WIRE 240 256 240 224
WIRE 1424 256 1424 192
WIRE 864 288 864 80
WIRE 1424 336 1424 304
WIRE 1648 336 1648 304
WIRE 1648 336 1424 336
WIRE 1152 352 1152 320
WIRE 1376 352 1376 320
WIRE 1376 352 1152 352
WIRE 80 368 80 320
WIRE 240 368 240 336
WIRE 240 368 80 368
WIRE 1648 368 1648 336
WIRE 1152 384 1152 352
WIRE -112 400 -112 288
WIRE 240 416 240 368
WIRE 336 416 240 416
WIRE 464 416 416 416
WIRE 736 416 512 416
WIRE 736 448 736 416
WIRE 240 464 240 416
WIRE 464 464 464 416
WIRE 512 480 512 416
WIRE 512 560 512 528
WIRE 736 560 736 528
WIRE 736 560 512 560
WIRE 240 576 240 544
WIRE 464 576 464 544
WIRE 464 576 240 576
WIRE 736 592 736 560
WIRE 240 672 240 576
FLAG 240 672 0
FLAG -112 400 0
FLAG 736 592 0
FLAG 864 288 0
FLAG 1648 368 0
FLAG 1152 384 0
SYMBOL npn 176 128 R0
SYMATTR InstName Q1
SYMATTR Value 2N3904
SYMBOL res 64 0 R0
SYMATTR InstName R1
SYMATTR Value 20k
SYMBOL res 224 240 R0
SYMATTR InstName R2
SYMATTR Value 120
SYMBOL voltage -112 192 R0
WINDOW 123 0 0 Left 2
WINDOW 39 0 0 Left 2
SYMATTR InstName V1
SYMATTR Value 18
SYMBOL LED 64 256 R0
SYMATTR InstName D2
SYMATTR Value STW8B12C
SYMBOL res 224 448 R0
SYMATTR InstName R3
SYMATTR Value 100
SYMBOL res 432 400 R90
WINDOW 0 0 56 VBottom 2
WINDOW 3 32 56 VTop 2
SYMATTR InstName R4
SYMATTR Value 10
SYMBOL sw 464 560 R180
SYMATTR InstName S1
SYMATTR Value MYSW
SYMBOL voltage 736 432 R0
WINDOW 123 0 0 Left 2
WINDOW 39 0 0 Left 2
SYMATTR InstName V2
SYMATTR Value PULSE(0 1 0 1n 1n 0.01 0.02)
SYMBOL AutoGenerated\\LM334 1008 112 R0
SYMATTR InstName U1
SYMBOL voltage 864 -16 R0
WINDOW 123 0 0 Left 2
WINDOW 39 0 0 Left 2
SYMATTR InstName V3
SYMATTR Value 18
SYMBOL res 1136 224 R0
SYMATTR InstName R5
SYMATTR Value 100
SYMBOL res 1344 176 R90
WINDOW 0 0 56 VBottom 2
WINDOW 3 32 56 VTop 2
SYMATTR InstName R6
SYMATTR Value 10
SYMBOL sw 1376 336 R180
SYMATTR InstName S2
SYMATTR Value MYSW
SYMBOL voltage 1648 208 R0
WINDOW 123 0 0 Left 2
WINDOW 39 0 0 Left 2
SYMATTR InstName V4
SYMATTR Value PULSE(0 1 0 1n 1n 0.01 0.02)
SYMBOL res 1056 144 R0
SYMATTR InstName R7
SYMATTR Value 7.6
TEXT -152 448 Left 2 !.tran 0.1
TEXT 528 632 Left 2 !.model MYSW SW(Ron=0.01 Roff=100Meg Vt=1 Vh=-.1)
TEXT 1440 408 Left 2 !.model MYSW SW(Ron=0.01 Roff=100Meg Vt=1 Vh=-.1)
