Version 4
SHEET 1 1332 1220
WIRE 144 -272 144 -288
WIRE 208 -128 -64 -128
WIRE 736 -128 304 -128
WIRE 752 -128 736 -128
WIRE 864 -128 832 -128
WIRE 1264 -128 864 -128
WIRE 736 -112 736 -128
WIRE 864 -96 864 -128
WIRE -64 -80 -64 -128
WIRE 624 -80 608 -80
WIRE 608 0 608 -80
WIRE 688 0 688 -80
WIRE 688 0 672 0
WIRE 736 0 736 -32
WIRE 736 0 688 0
WIRE 1264 0 1264 -128
WIRE 1264 0 1200 0
WIRE 1264 32 1264 0
WIRE 736 80 736 0
WIRE 736 80 688 80
WIRE 144 96 144 -192
WIRE 256 96 256 -64
WIRE 256 96 144 96
WIRE 464 96 256 96
WIRE 608 96 608 0
WIRE 608 96 528 96
WIRE 624 96 608 96
WIRE 864 112 864 -16
WIRE 864 112 688 112
WIRE -304 176 -368 176
WIRE -368 208 -368 176
WIRE 1120 288 736 288
WIRE 1200 288 1200 0
WIRE 640 320 624 320
WIRE 736 320 736 288
WIRE 736 320 704 320
WIRE 736 384 736 320
WIRE 736 384 704 384
WIRE 256 400 256 96
WIRE 304 400 256 400
WIRE 624 400 624 320
WIRE 624 400 368 400
WIRE 640 400 624 400
WIRE 1184 416 704 416
WIRE 1184 448 1184 416
WIRE 1264 640 1264 112
WIRE 1264 640 1184 528
WIRE -64 672 -64 0
WIRE 752 672 -64 672
WIRE 784 672 752 672
WIRE 896 672 864 672
WIRE 1264 672 1264 640
WIRE 1264 672 896 672
WIRE 1264 720 1264 672
WIRE 752 784 752 672
WIRE 784 784 752 784
WIRE 784 800 784 784
WIRE 896 816 896 672
WIRE 656 880 640 880
WIRE 768 880 720 880
WIRE 784 880 768 880
WIRE 896 912 896 896
WIRE 608 928 496 928
WIRE 832 992 720 992
WIRE 896 992 832 992
WIRE 256 1008 256 400
WIRE 496 1008 496 928
WIRE 608 1008 608 928
WIRE 608 1008 560 1008
WIRE 640 1008 640 880
WIRE 640 1008 608 1008
WIRE 656 1008 640 1008
WIRE 768 1024 768 880
WIRE 768 1024 720 1024
WIRE 640 1120 640 1008
WIRE 672 1120 640 1120
WIRE 832 1120 832 992
WIRE 832 1120 736 1120
FLAG -368 208 0
FLAG -304 96 V+
FLAG -304 256 V-
FLAG 144 -288 V+
FLAG 1264 720 0
FLAG 656 64 V+
FLAG 672 368 V+
FLAG 672 432 V-
FLAG 656 128 V-
FLAG 688 976 V+
FLAG 688 1040 V-
SYMBOL voltage -304 80 R0
WINDOW 123 0 0 Left 0
WINDOW 39 0 0 Left 0
SYMATTR InstName V1
SYMATTR Value 15
SYMBOL voltage -304 160 R0
WINDOW 123 0 0 Left 0
WINDOW 39 0 0 Left 0
SYMATTR InstName V2
SYMATTR Value 5
SYMBOL Opamps\\LT1113 656 32 M0
SYMATTR InstName U1
SYMBOL Opamps\\LT1113 672 336 M0
SYMATTR InstName U2
SYMBOL npn 208 -64 R270
SYMATTR InstName Q1
SYMATTR Value 2N3904
SYMBOL voltage -64 -96 R0
WINDOW 123 0 0 Left 0
WINDOW 39 0 0 Left 0
SYMATTR InstName V3
SYMATTR Value 10
SYMBOL current 144 -272 R0
WINDOW 123 0 0 Left 0
WINDOW 39 0 0 Left 0
SYMATTR InstName I1
SYMATTR Value 1m
SYMBOL diode 464 112 R270
WINDOW 0 32 32 VTop 2
WINDOW 3 0 32 VBottom 2
SYMATTR InstName D1
SYMATTR Value 1N914
SYMBOL diode 304 416 R270
WINDOW 0 32 32 VTop 2
WINDOW 3 0 32 VBottom 2
SYMATTR InstName D2
SYMATTR Value 1N914
SYMBOL res 1248 16 R0
SYMATTR InstName R1
SYMATTR Value 10
SYMBOL voltage 1184 432 R0
WINDOW 123 0 0 Left 0
WINDOW 39 0 0 Left 0
SYMATTR InstName V4
SYMATTR Value 5
SYMBOL diode 640 336 R270
WINDOW 0 32 32 VTop 2
WINDOW 3 31 -30 VBottom 2
SYMATTR InstName D3
SYMATTR Value 1N914
SYMBOL res 1216 272 R90
WINDOW 0 0 56 VBottom 2
WINDOW 3 32 56 VTop 2
SYMATTR InstName R2
SYMATTR Value 2k
SYMBOL res 736 -112 R270
WINDOW 0 32 56 VTop 2
WINDOW 3 0 56 VBottom 2
SYMATTR InstName R3
SYMATTR Value 1
SYMBOL res 720 -128 R0
SYMATTR InstName R4
SYMATTR Value 5k
SYMBOL voltage 864 0 R180
WINDOW 123 0 0 Left 0
WINDOW 39 24 -12 Left 2
SYMATTR SpiceLine Rser=5k
SYMATTR InstName V5
SYMATTR Value 0.05
SYMBOL diode 608 16 R270
WINDOW 0 32 32 VTop 2
WINDOW 3 31 -30 VBottom 2
SYMATTR InstName D4
SYMATTR Value 1N914
SYMBOL cap 688 -96 R90
WINDOW 0 0 32 VBottom 2
WINDOW 3 32 32 VTop 2
SYMATTR InstName C1
SYMATTR Value 100p
SYMBOL res 880 656 R90
WINDOW 0 0 56 VBottom 2
WINDOW 3 32 56 VTop 2
SYMATTR InstName R5
SYMATTR Value 1
SYMBOL Opamps\\LT1113 688 944 M0
SYMATTR InstName U3
SYMBOL diode 496 1024 R270
WINDOW 0 32 32 VTop 2
WINDOW 3 0 32 VBottom 2
SYMATTR InstName D5
SYMATTR Value 1N914
SYMBOL voltage 896 800 R0
WINDOW 123 0 0 Left 0
WINDOW 39 0 0 Left 0
SYMATTR InstName V6
SYMATTR Value 10
SYMBOL cap 720 864 R90
WINDOW 0 0 32 VBottom 2
WINDOW 3 32 32 VTop 2
SYMATTR InstName C2
SYMATTR Value 100p
SYMBOL res 768 784 R0
SYMATTR InstName R6
SYMATTR Value 6k
SYMBOL diode 672 1136 R270
WINDOW 0 32 32 VTop 2
WINDOW 3 31 -30 VBottom 2
SYMATTR InstName D6
SYMATTR Value 1N914
SYMBOL res 880 896 R0
SYMATTR InstName R7
SYMATTR Value 6k
TEXT -392 648 Left 2 !.tran 0.01
