Version 4
SHEET 1 1528 1052
WIRE -32 -208 -224 -208
WIRE -32 -176 -32 -208
WIRE -528 -64 -576 -64
WIRE -448 -64 -448 -208
WIRE -448 -64 -464 -64
WIRE -224 -64 -224 -208
WIRE -224 -64 -448 -64
WIRE -160 -64 -224 -64
WIRE 160 -64 96 -64
WIRE 224 -64 160 -64
WIRE -448 0 -448 -64
WIRE 224 16 224 -64
WIRE 288 16 224 16
WIRE 640 16 288 16
WIRE -528 32 -528 -64
WIRE 160 48 160 -64
WIRE 288 48 288 16
WIRE 640 48 640 16
WIRE -32 64 -32 48
WIRE 48 64 -32 64
WIRE -32 80 -32 64
WIRE 48 96 48 64
WIRE -576 128 -576 -64
WIRE -32 176 -32 160
WIRE 48 176 48 160
WIRE 48 176 -32 176
WIRE -448 192 -448 64
WIRE -240 192 -448 192
WIRE -176 192 -240 192
WIRE -32 192 -32 176
WIRE -32 192 -80 192
WIRE 160 192 160 112
WIRE 160 192 -32 192
WIRE 288 192 288 128
WIRE 288 192 160 192
WIRE 512 192 288 192
WIRE 736 192 592 192
WIRE 816 192 736 192
WIRE -32 208 -32 192
WIRE -240 224 -240 192
WIRE 224 272 224 16
WIRE 736 288 736 192
WIRE -528 304 -528 96
WIRE -528 304 -752 304
WIRE -448 304 -448 192
WIRE -448 304 -528 304
WIRE -240 320 -240 304
WIRE -128 320 -128 256
WIRE -128 320 -240 320
WIRE -752 336 -752 304
WIRE -528 336 -528 304
WIRE 1104 336 1104 320
WIRE -128 352 -128 320
WIRE -32 352 -32 288
WIRE -448 400 -448 304
WIRE 480 416 464 416
WIRE -752 432 -752 400
WIRE -688 432 -752 432
WIRE -576 432 -576 192
WIRE -576 432 -608 432
WIRE -528 432 -528 400
WIRE -528 432 -576 432
WIRE -80 432 -80 416
WIRE -48 432 -80 432
WIRE 224 432 224 352
WIRE 224 432 32 432
WIRE 304 432 224 432
WIRE 400 432 368 432
WIRE 640 448 640 128
WIRE 640 448 464 448
WIRE 1104 448 1104 416
WIRE -752 464 -752 432
WIRE -528 464 -528 432
WIRE 640 512 640 448
WIRE 640 512 576 512
WIRE 640 528 640 512
WIRE 576 544 576 512
WIRE -752 560 -752 528
WIRE -528 560 -528 528
WIRE -528 560 -752 560
WIRE -448 560 -448 464
WIRE -448 560 -528 560
WIRE -240 560 -448 560
WIRE 1104 560 1104 528
WIRE 816 592 816 192
WIRE 576 624 576 608
WIRE 640 624 640 608
WIRE 640 624 576 624
WIRE -240 672 -240 560
WIRE 512 672 -240 672
WIRE 736 672 736 368
WIRE 736 672 640 624
WIRE 736 672 592 672
WIRE 816 672 816 656
WIRE 816 672 736 672
WIRE -240 720 -240 672
WIRE 736 736 736 672
WIRE -240 816 -240 800
FLAG 736 736 0
FLAG -448 -208 V+
IOPIN -448 -208 In
FLAG -240 816 V-
IOPIN -240 816 Out
FLAG 480 416 OUT
IOPIN 480 416 In
FLAG 816 192 OUT
IOPIN 816 192 In
FLAG 432 400 V+
IOPIN 432 400 In
FLAG 432 464 V-
IOPIN 432 464 Out
FLAG 1104 560 0
FLAG 1104 320 OUT
IOPIN 1104 320 In
SYMBOL res 608 656 R90
WINDOW 0 0 56 VBottom 2
WINDOW 3 32 56 VTop 2
SYMATTR InstName R1
SYMATTR Value 0.1
SYMBOL res 656 624 R180
WINDOW 0 36 76 Left 2
WINDOW 3 36 40 Left 2
SYMATTR InstName R2
SYMATTR Value 2k
SYMBOL res 624 32 R0
SYMATTR InstName R3
SYMATTR Value 3k16
SYMBOL pnp -80 256 M270
WINDOW 0 36 47 Left 2
SYMATTR InstName Q1
SYMATTR Value D45H11
SYMBOL Opamps\\LT1057 432 368 M0
WINDOW 3 -109 119 Left 2
SYMATTR InstName U1
SYMBOL voltage -240 704 R0
WINDOW 123 0 0 Left 2
WINDOW 39 0 0 Left 2
SYMATTR InstName V3
SYMATTR Value 5
SYMBOL diode 304 448 R270
WINDOW 0 32 32 VTop 2
WINDOW 3 0 32 VBottom 2
SYMATTR InstName D1
SYMATTR Value 1N914
SYMBOL current 224 272 R0
WINDOW 123 0 0 Left 2
WINDOW 39 0 0 Left 2
SYMATTR InstName I1
SYMATTR Value 5m
SYMBOL npn -128 416 R270
SYMATTR InstName Q2
SYMATTR Value 2N3904
SYMBOL res -48 192 R0
SYMATTR InstName R5
SYMATTR Value 1
SYMBOL res -256 208 R0
SYMATTR InstName R6
SYMATTR Value 100
SYMBOL voltage 1104 432 R0
WINDOW 123 0 0 Left 2
WINDOW 39 0 0 Left 2
SYMATTR InstName V4
SYMATTR Value PULSE(0 1 0.01 10u 10u 2.5m 5m)
SYMBOL res 1088 320 R0
SYMATTR InstName R7
SYMATTR Value 1k
SYMBOL cap 560 544 R0
WINDOW 0 -44 15 Left 2
WINDOW 3 -61 55 Left 2
SYMATTR InstName C1
SYMATTR Value 100n
SYMBOL res 608 176 R90
WINDOW 0 0 56 VBottom 2
WINDOW 3 32 56 VTop 2
SYMATTR InstName R8
SYMATTR Value 0.1
SYMBOL res 48 416 R90
WINDOW 0 0 56 VBottom 2
WINDOW 3 32 56 VTop 2
SYMATTR InstName R9
SYMATTR Value 150
SYMBOL schottky -736 400 R180
WINDOW 0 24 64 Left 2
WINDOW 3 24 0 Left 2
SYMATTR InstName D2
SYMATTR Value MBRS340
SYMATTR Description Diode
SYMATTR Type diode
SYMBOL schottky -512 400 R180
WINDOW 0 24 64 Left 2
WINDOW 3 24 0 Left 2
SYMATTR InstName D3
SYMATTR Value MBRS340
SYMATTR Description Diode
SYMATTR Type diode
SYMBOL schottky -512 528 R180
WINDOW 0 24 64 Left 2
WINDOW 3 24 0 Left 2
SYMATTR InstName D4
SYMATTR Value MBRS340
SYMATTR Description Diode
SYMATTR Type diode
SYMBOL schottky -736 528 R180
WINDOW 0 24 64 Left 2
WINDOW 3 24 0 Left 2
SYMATTR InstName D5
SYMATTR Value MBRS340
SYMATTR Description Diode
SYMATTR Type diode
SYMBOL voltage -704 432 R270
WINDOW 3 -181 96 Left 2
WINDOW 123 0 0 Left 2
WINDOW 39 0 0 Left 2
SYMATTR InstName V5
SYMATTR Value SINE(0 14 50)
SYMBOL cap -464 400 R0
SYMATTR InstName C2
SYMATTR Value 15m
SYMBOL schottky -512 96 R180
WINDOW 0 24 64 Left 2
WINDOW 3 24 0 Left 2
SYMATTR InstName D6
SYMATTR Value MBRS340
SYMATTR Description Diode
SYMATTR Type diode
SYMBOL schottky -528 -48 R270
WINDOW 0 32 32 VTop 2
WINDOW 3 0 32 VBottom 2
SYMATTR InstName D7
SYMATTR Value MBRS340
SYMATTR Description Diode
SYMATTR Type diode
SYMBOL cap -464 0 R0
SYMATTR InstName C3
SYMATTR Value 1m
SYMBOL cap -592 128 R0
SYMATTR InstName C4
SYMATTR Value 1m
SYMBOL res 720 272 R0
SYMATTR InstName R4
SYMATTR Value 50
SYMBOL PowerProducts\\LT3080 -32 -64 R0
WINDOW 0 3 -44 Center 2
SYMATTR InstName U2
SYMBOL res -48 64 R0
SYMATTR InstName R10
SYMATTR Value 330k
SYMBOL cap 144 48 R0
SYMATTR InstName C5
SYMATTR Value 10µ
SYMBOL cap 32 96 R0
SYMATTR InstName C6
SYMATTR Value 100n
SYMBOL current 288 48 R0
WINDOW 123 0 0 Left 2
WINDOW 39 0 0 Left 2
SYMATTR InstName I2
SYMATTR Value 10m
SYMBOL cap 800 592 R0
SYMATTR InstName C7
SYMATTR Value 100µ
SYMBOL diode 16 32 R0
SYMATTR InstName D8
TEXT 902 818 Left 2 !.tran 0.1
