Version 4
SHEET 1 1000 680
WIRE 256 -96 192 -96
WIRE 384 -96 320 -96
WIRE 16 -16 -16 -16
WIRE 144 -16 96 -16
WIRE 192 -16 192 -96
WIRE 192 -16 144 -16
WIRE 256 -16 192 -16
WIRE 384 -16 384 -96
WIRE 384 -16 336 -16
WIRE 496 -16 384 -16
WIRE -16 64 -16 -16
WIRE 672 64 672 32
WIRE 672 64 592 64
WIRE 208 80 208 64
WIRE -288 96 -288 64
WIRE 144 96 144 -16
WIRE 176 96 144 96
WIRE 592 96 592 64
WIRE 672 96 672 64
WIRE 496 112 496 -16
WIRE 496 112 240 112
WIRE 176 128 144 128
WIRE 208 160 208 144
WIRE 592 192 592 160
WIRE 672 192 672 176
WIRE 672 192 592 192
WIRE -288 224 -288 176
WIRE -288 224 -336 224
WIRE -336 240 -336 224
WIRE 16 240 -64 240
WIRE 144 240 144 128
WIRE 144 240 96 240
WIRE 208 240 144 240
WIRE 320 240 288 240
WIRE 368 240 320 240
WIRE 496 240 496 112
WIRE 496 240 448 240
WIRE 672 256 672 192
WIRE -288 272 -288 224
WIRE -64 288 -64 240
WIRE 320 352 320 240
WIRE -288 384 -288 352
WIRE -64 416 -64 368
FLAG -336 240 0
FLAG -288 384 V-
IOPIN -288 384 Out
FLAG -288 64 V+
IOPIN -288 64 Out
FLAG 208 64 V+
IOPIN 208 64 Out
FLAG 208 160 V-
IOPIN 208 160 Out
FLAG -16 64 0
FLAG 320 352 OUT
IOPIN 320 352 Out
FLAG 672 32 OUT
IOPIN 672 32 Out
FLAG 672 256 0
FLAG -64 416 0
SYMBOL res 112 -32 R90
WINDOW 0 0 56 VBottom 2
WINDOW 3 32 56 VTop 2
SYMATTR InstName R1
SYMATTR Value 220k
SYMBOL res 304 224 R90
WINDOW 0 0 56 VBottom 2
WINDOW 3 32 56 VTop 2
SYMATTR InstName R2
SYMATTR Value 100k
SYMBOL res 352 -32 R90
WINDOW 0 0 56 VBottom 2
WINDOW 3 32 56 VTop 2
SYMATTR InstName R3
SYMATTR Value 100k
SYMBOL res 464 224 R90
WINDOW 0 0 56 VBottom 2
WINDOW 3 32 56 VTop 2
SYMATTR InstName R4
SYMATTR Value 1k
SYMBOL res 112 224 R90
WINDOW 0 0 56 VBottom 2
WINDOW 3 32 56 VTop 2
SYMATTR InstName R5
SYMATTR Value 223k
SYMBOL cap 320 -112 R90
WINDOW 0 0 32 VBottom 2
WINDOW 3 32 32 VTop 2
SYMATTR InstName C1
SYMATTR Value 5p
SYMBOL Opamps\\LT1884 208 48 R0
SYMATTR InstName U1
SYMBOL voltage -288 80 R0
WINDOW 123 0 0 Left 2
WINDOW 39 0 0 Left 2
SYMATTR InstName V1
SYMATTR Value 18
SYMBOL voltage -288 256 R0
WINDOW 123 0 0 Left 2
WINDOW 39 0 0 Left 2
SYMATTR InstName V2
SYMATTR Value -3
SYMBOL voltage -64 272 R0
WINDOW 123 0 0 Left 2
WINDOW 39 0 0 Left 2
SYMATTR InstName V3
SYMATTR Value 3.3
SYMBOL res 656 80 R0
SYMATTR InstName R6
SYMATTR Value 10k
SYMBOL cap 576 96 R0
SYMATTR InstName C2
SYMATTR Value 1µ
TEXT -368 476 Left 2 !.tran 1 startup uic
