Version 4
SHEET 1 1336 680
WIRE -64 64 -32 -48
WIRE 96 64 -64 64
WIRE 208 64 96 64
WIRE 352 64 352 -48
WIRE 352 64 288 64
WIRE 416 64 352 64
WIRE 528 64 496 64
WIRE 720 64 528 64
WIRE -240 96 -240 64
WIRE 528 96 528 64
WIRE 96 112 96 64
WIRE -240 192 -240 176
WIRE 528 192 528 176
WIRE 528 192 464 192
WIRE -64 224 -64 144
WIRE 96 224 96 192
WIRE 304 224 96 224
WIRE 432 224 416 224
WIRE 720 224 720 64
WIRE 304 272 304 224
WIRE 336 272 336 224
WIRE 432 272 432 224
WIRE 464 272 464 192
WIRE 288 304 272 304
WIRE 384 480 384 448
WIRE 384 480 336 480
WIRE 384 496 384 480
WIRE 384 592 384 576
FLAG -64 224 0
FLAG -240 192 0
FLAG 336 480 OUT
FLAG -336 320 0
FLAG -336 400 V-
IOPIN -336 400 Out
FLAG 480 304 V-
IOPIN 480 304 Out
FLAG 448 384 0
FLAG 272 304 V+
IOPIN 272 304 Out
FLAG -240 64 V+
IOPIN -240 64 Out
FLAG 720 304 0
FLAG 384 592 0
SYMBOL voltage -240 80 R0
WINDOW 123 0 0 Left 0
WINDOW 39 0 0 Left 0
SYMATTR InstName V1
SYMATTR Value 15
SYMBOL voltage -64 48 R0
WINDOW 123 24 132 Left 2
WINDOW 39 24 114 Left 2
SYMATTR InstName VCM
SYMATTR Value 1
SYMBOL Opamps\\AD8422 384 304 M90
SYMATTR InstName U2
SYMBOL voltage -336 304 R0
WINDOW 123 0 0 Left 0
WINDOW 39 0 0 Left 0
SYMATTR InstName V2
SYMATTR Value 3
SYMBOL res 320 208 M90
WINDOW 0 0 56 VBottom 2
WINDOW 3 32 56 VTop 2
SYMATTR InstName R1
SYMATTR Value 2.21k
SYMBOL current 720 224 R0
WINDOW 123 0 0 Left 0
WINDOW 39 0 0 Left 0
SYMATTR InstName I1
SYMATTR Value SINE(5m 5m 1k)
SYMBOL res 368 480 R0
SYMATTR InstName R5
SYMATTR Value 5k
SYMBOL res 304 48 R90
WINDOW 0 0 56 VBottom 2
WINDOW 3 32 56 VTop 2
SYMATTR InstName R2
SYMATTR Value 10
SYMBOL res 512 48 R90
WINDOW 0 0 56 VBottom 2
WINDOW 3 32 56 VTop 2
SYMATTR InstName R3
SYMATTR Value 1
SYMBOL res 512 80 R0
SYMATTR InstName R4
SYMATTR Value 500
SYMBOL res 80 96 R0
SYMATTR InstName R6
SYMATTR Value 500
TEXT 120 448 VRight 2 !.tran 2m
TEXT 896 128 Left 2 !.meas tran MAX mag(V(out))
