Version 4
SHEET 1 1140 680
WIRE 288 16 32 16
WIRE 544 16 288 16
WIRE 848 16 544 16
WIRE 544 176 544 16
WIRE 544 176 448 176
WIRE 288 192 288 16
WIRE 544 192 544 176
WIRE 912 208 800 208
WIRE 1040 208 992 208
WIRE 848 240 848 16
WIRE 32 256 32 16
WIRE 240 256 224 256
WIRE 448 256 448 176
WIRE 496 256 448 256
WIRE 688 256 672 256
WIRE 800 256 800 208
WIRE 800 256 768 256
WIRE 816 256 800 256
WIRE 1040 272 1040 208
WIRE 1040 272 880 272
WIRE 1136 272 1040 272
WIRE 816 288 768 288
WIRE 672 304 672 256
WIRE 768 352 768 288
WIRE 1136 352 1136 272
WIRE 288 368 224 368
WIRE 848 368 848 304
WIRE 32 400 32 336
WIRE 288 400 288 368
WIRE 288 400 32 400
WIRE 544 400 544 288
WIRE 544 400 288 400
WIRE 544 432 544 400
WIRE 672 432 672 384
WIRE 848 528 848 448
FLAG 544 432 0
FLAG 848 528 0
FLAG 768 352 0
FLAG 672 432 0
SYMBOL njf 240 192 R0
SYMATTR InstName J1
SYMATTR Value J113
SYMBOL pjf 496 192 R0
SYMATTR InstName J2
SYMATTR Value J177
SYMBOL voltage 32 240 R0
WINDOW 123 0 0 Left 0
WINDOW 39 0 0 Left 0
SYMATTR InstName V1
SYMATTR Value 10
SYMBOL res 272 272 R0
SYMATTR InstName R1
SYMATTR Value 500
SYMBOL Opamps\\AD8040 848 208 R0
SYMATTR InstName U1
SYMBOL voltage 672 288 R0
WINDOW 123 0 0 Left 0
WINDOW 39 0 0 Left 0
SYMATTR InstName V2
SYMATTR Value 10
SYMBOL res 784 240 R90
WINDOW 0 0 56 VBottom 2
WINDOW 3 32 56 VTop 2
SYMATTR InstName R2
SYMATTR Value 10k
SYMBOL res 1008 192 R90
WINDOW 0 0 56 VBottom 2
WINDOW 3 32 56 VTop 2
SYMATTR InstName R3
SYMATTR Value 1k
SYMBOL voltage 848 464 R180
WINDOW 123 0 0 Left 0
WINDOW 39 0 0 Left 0
SYMATTR InstName V3
SYMATTR Value 10
TEXT -2 410 Left 2 !.tran 0.1
