Version 4
SHEET 1 880 680
WIRE 112 -16 -112 -16
WIRE 240 -16 112 -16
WIRE 112 32 112 -16
WIRE 240 128 240 -16
WIRE 112 176 112 112
WIRE 176 176 112 176
WIRE -112 192 -112 -16
WIRE 112 240 112 176
WIRE 240 256 240 224
WIRE -112 400 -112 272
WIRE 112 400 112 304
WIRE 240 400 240 336
FLAG 112 400 0
FLAG 240 400 0
FLAG -112 400 0
SYMBOL npn 176 128 R0
SYMATTR InstName Q1
SYMATTR Value 2N3904
SYMBOL res 96 16 R0
SYMATTR InstName R1
SYMATTR Value 20k
SYMBOL res 224 240 R0
SYMATTR InstName R2
SYMATTR Value 120
SYMBOL voltage -112 176 R0
WINDOW 123 0 0 Left 2
WINDOW 39 0 0 Left 2
SYMATTR InstName V1
SYMATTR Value 18
SYMBOL LED 96 240 R0
SYMATTR InstName D2
SYMATTR Value STW8B12C
TEXT -146 424 Left 2 !.tran 10
