Version 4
SHEET 1 1748 804
WIRE 688 -432 416 -432
WIRE 1056 -432 784 -432
WIRE 1152 -432 1136 -432
WIRE 1408 -432 1152 -432
WIRE 1056 -400 1056 -432
WIRE 1056 -272 1056 -320
WIRE 1056 -272 1008 -272
WIRE 1008 -240 1008 -272
WIRE 1008 -240 992 -240
WIRE 576 -224 560 -224
WIRE 736 -224 736 -368
WIRE 736 -224 656 -224
WIRE 848 -224 736 -224
WIRE 928 -224 912 -224
WIRE 1408 -224 1408 -432
WIRE 1456 -224 1408 -224
WIRE 1008 -208 992 -208
WIRE 1408 -192 1408 -224
WIRE 1008 -176 1008 -208
WIRE 1152 -176 1152 -432
WIRE 1152 -176 1008 -176
WIRE 1056 -128 1056 -272
WIRE 16 -64 16 -80
WIRE 1024 80 992 80
WIRE 736 96 736 -224
WIRE 800 96 736 96
WIRE 928 96 864 96
WIRE 1216 112 992 112
WIRE 16 208 16 192
WIRE 16 208 -48 208
WIRE -48 224 -48 208
WIRE 16 224 16 208
WIRE 1216 224 1216 192
WIRE 352 400 352 336
WIRE 496 448 496 384
WIRE 656 464 528 464
WIRE 464 480 400 480
WIRE 544 496 528 496
WIRE 656 496 656 464
WIRE 352 528 352 496
WIRE 544 528 544 496
WIRE 544 528 352 528
WIRE 352 592 352 528
WIRE 656 608 656 576
WIRE 496 640 496 512
WIRE 352 720 352 672
FLAG -48 224 0
FLAG 16 112 V+
IOPIN 16 112 Out
FLAG 960 64 V+
IOPIN 960 64 Out
FLAG 16 304 V-
IOPIN 16 304 Out
FLAG 960 128 V-
IOPIN 960 128 Out
FLAG 1216 224 0
FLAG 1408 -112 0
FLAG 416 -432 V+
IOPIN 416 -432 Out
FLAG 1456 -224 out
IOPIN 1456 -224 Out
FLAG 560 -224 V+
IOPIN 560 -224 Out
FLAG 1024 80 out
IOPIN 1024 80 Out
FLAG 960 -256 V+
IOPIN 960 -256 Out
FLAG 960 -192 V-
IOPIN 960 -192 Out
FLAG 496 640 V+
IOPIN 496 640 Out
FLAG 496 384 V-
IOPIN 496 384 Out
FLAG 656 608 0
FLAG 352 336 current
FLAG 16 -64 0
FLAG 16 -160 V+
IOPIN 16 -160 Out
FLAG 1056 -128 current
FLAG 352 720 0
SYMBOL voltage 16 96 R0
WINDOW 123 0 0 Left 2
WINDOW 39 0 0 Left 2
SYMATTR InstName V1
SYMATTR Value 20
SYMBOL voltage 16 208 R0
WINDOW 123 0 0 Left 2
WINDOW 39 0 0 Left 2
SYMATTR InstName V2
SYMATTR Value 5
SYMBOL voltage 1216 96 R0
WINDOW 123 0 0 Left 2
WINDOW 39 0 0 Left 2
SYMATTR InstName V3
SYMATTR Value 3.3
SYMBOL npn 688 -368 R270
SYMATTR InstName Q1
SYMATTR Value 2SCR542P
SYMBOL res 1392 -208 R0
SYMATTR InstName R1
SYMATTR Value 1
SYMBOL res 1152 -448 R90
WINDOW 0 0 56 VBottom 2
WINDOW 3 32 56 VTop 2
SYMATTR InstName R2
SYMATTR Value 0.05
SYMBOL res 1040 -416 R0
SYMATTR InstName R3
SYMATTR Value 15
SYMBOL Opamps\\LT1057 960 32 M0
WINDOW 3 -45 -42 Left 2
SYMATTR InstName U2
SYMBOL current 576 -224 R270
WINDOW 123 0 0 Left 2
WINDOW 39 0 0 Left 2
SYMATTR InstName I2
SYMATTR Value 10m
SYMBOL diode 800 112 R270
WINDOW 0 32 32 VTop 2
WINDOW 3 0 32 VBottom 2
SYMATTR InstName D1
SYMATTR Value 1N914
SYMBOL Opamps\\LT1057 960 -288 M0
WINDOW 3 -42 155 Left 2
SYMATTR InstName U1
SYMBOL diode 848 -208 R270
WINDOW 0 32 32 VTop 2
WINDOW 3 0 32 VBottom 2
SYMATTR InstName D2
SYMATTR Value 1N914
SYMBOL Opamps\\LT1057 496 544 R180
WINDOW 3 -45 -42 Left 2
SYMATTR InstName U3
SYMBOL voltage 656 480 R0
WINDOW 123 0 0 Left 2
WINDOW 39 0 0 Left 2
SYMATTR InstName V4
SYMATTR Value 3.3
SYMBOL res 336 576 R0
SYMATTR InstName R4
SYMATTR Value 330
SYMBOL nmos 400 400 M0
SYMATTR InstName M1
SYMATTR Value 2N7002
SYMBOL current 16 -160 R0
WINDOW 123 0 0 Left 2
WINDOW 39 0 0 Left 2
SYMATTR InstName I3
SYMATTR Value 10m
TEXT -72 392 Left 2 !.tran 0.1 startup uic
