Version 4
SHEET 1 3048 840
WIRE 1472 64 1296 64
WIRE 1536 64 1472 64
WIRE 1904 64 1616 64
WIRE 1472 96 1472 64
WIRE 1296 176 1296 64
WIRE 1344 176 1296 176
WIRE 1472 192 1472 160
WIRE 1472 192 1408 192
WIRE 1552 192 1472 192
WIRE 1776 192 1616 192
WIRE 1792 192 1776 192
WIRE 1904 192 1904 64
WIRE 1904 192 1872 192
WIRE 1968 192 1904 192
WIRE 2032 192 1968 192
WIRE 2128 192 2032 192
WIRE 2192 192 2128 192
WIRE 1344 208 1280 208
WIRE 1776 208 1776 192
WIRE 912 256 912 176
WIRE 2128 272 2128 192
WIRE 1968 288 1968 192
WIRE 1968 288 1856 288
WIRE 2032 288 2032 192
WIRE 1776 320 1776 288
WIRE 1776 320 1584 320
WIRE 1280 336 1280 208
WIRE 1296 336 1280 336
WIRE 1392 336 1360 336
WIRE 1456 336 1392 336
WIRE 1520 336 1456 336
WIRE 1968 336 1968 288
WIRE 1968 336 1952 336
WIRE 912 352 912 336
WIRE 912 352 816 352
WIRE 1616 352 1584 352
WIRE 1728 352 1616 352
WIRE 1856 352 1808 352
WIRE 1888 352 1856 352
WIRE 912 368 912 352
WIRE 1984 368 1952 368
WIRE 1456 384 1456 336
WIRE 816 416 816 352
WIRE 1856 416 1856 352
WIRE 1984 416 1984 368
WIRE 1984 416 1856 416
WIRE 1280 432 1280 336
WIRE 2128 432 2128 352
WIRE 912 496 912 448
WIRE 1392 496 1392 400
WIRE 1456 496 1456 448
WIRE 1456 496 1392 496
WIRE 1616 496 1616 352
WIRE 1616 496 1456 496
WIRE 1280 560 1280 512
WIRE 1280 736 1280 640
FLAG 816 416 0
FLAG 912 176 V+
FLAG 912 496 V-
FLAG 1568 160 V+
FLAG 1376 160 V+
FLAG 1584 224 V-
FLAG 1376 224 V-
FLAG 2192 192 out2
FLAG 2128 432 0
FLAG 1552 368 V+
FLAG 1552 304 V-
FLAG 1280 736 0
FLAG 2032 352 0
FLAG 1920 384 V+
FLAG 1920 320 V-
SYMBOL voltage 912 352 R0
WINDOW 123 0 0 Left 0
WINDOW 39 0 0 Left 0
SYMATTR InstName V3
SYMATTR Value 15
SYMBOL voltage 912 240 R0
WINDOW 123 0 0 Left 0
WINDOW 39 0 0 Left 0
SYMATTR InstName V4
SYMATTR Value 0
SYMBOL OpAmps\\LT1010 1584 128 R0
WINDOW 3 9 0 Left 2
SYMATTR InstName U4
SYMBOL cap 1456 96 R0
SYMATTR InstName C4
SYMATTR Value 1n
SYMBOL res 1632 48 R90
WINDOW 0 0 56 VBottom 2
WINDOW 3 32 56 VTop 2
SYMATTR InstName R9
SYMATTR Value 1k
SYMBOL res 1296 528 R180
WINDOW 0 36 76 Left 2
WINDOW 3 36 40 Left 2
SYMATTR InstName R10
SYMATTR Value 2k
SYMBOL res 1888 176 R90
WINDOW 0 0 56 VBottom 2
WINDOW 3 32 56 VTop 2
SYMATTR InstName R11
SYMATTR Value 2
SYMBOL voltage 1280 656 R180
WINDOW 3 42 74 Left 2
WINDOW 123 0 0 Left 0
WINDOW 39 0 0 Left 0
SYMATTR Value 10
SYMATTR InstName V6
SYMBOL res 2112 256 R0
SYMATTR InstName R16
SYMATTR Value R=if(time>10m&time<20m,2,100)
SYMBOL diode 1360 320 R90
WINDOW 0 0 32 VBottom 2
WINDOW 3 32 32 VTop 2
SYMATTR InstName D3
SYMATTR Value 1N914
SYMBOL diode 1472 448 R180
WINDOW 0 -17 59 Left 2
WINDOW 3 -67 -2 Left 2
SYMATTR InstName D4
SYMATTR Value 1N914
SYMBOL cap 1376 336 R0
SYMATTR InstName C3
SYMATTR Value 10p
SYMBOL res 1712 368 R270
WINDOW 0 32 56 VTop 2
WINDOW 3 0 56 VBottom 2
SYMATTR InstName R14
SYMATTR Value 2k
SYMBOL voltage 1776 192 R0
WINDOW 3 -75 57 Left 2
WINDOW 123 0 0 Left 0
WINDOW 39 -19 32 Left 2
SYMATTR Value 0.5
SYMATTR InstName V7
SYMBOL cap 2016 288 R0
SYMATTR InstName C1
SYMATTR Value 10p
SYMATTR SpiceLine Rser=1
SYMBOL OpAmps\\LT1468 1920 416 R180
SYMATTR InstName U5
SYMBOL OpAmps\\LT1468 1552 400 R180
SYMATTR InstName U2
SYMBOL OpAmps\\LT1468 1376 128 R0
SYMATTR InstName U1
TEXT 800 536 Left 2 !.tran 0.1
