Version 4
SHEET 1 3048 840
WIRE 128 16 -48 16
WIRE 192 16 128 16
WIRE 464 16 272 16
WIRE 128 48 128 16
WIRE 1472 64 1296 64
WIRE 1536 64 1472 64
WIRE 1904 64 1616 64
WIRE 1472 96 1472 64
WIRE -48 128 -48 16
WIRE 0 128 -48 128
WIRE 128 144 128 112
WIRE 128 144 64 144
WIRE 208 144 128 144
WIRE 304 144 272 144
WIRE 352 144 304 144
WIRE 464 144 464 16
WIRE 464 144 432 144
WIRE 640 144 464 144
WIRE 752 144 640 144
WIRE 0 160 -64 160
WIRE 304 176 304 144
WIRE 464 176 464 144
WIRE 1296 176 1296 64
WIRE 1344 176 1296 176
WIRE 1472 192 1472 160
WIRE 1472 192 1408 192
WIRE 1552 192 1472 192
WIRE 1744 192 1616 192
WIRE 1776 192 1744 192
WIRE 1792 192 1776 192
WIRE 1904 192 1904 64
WIRE 1904 192 1872 192
WIRE 2016 192 1904 192
WIRE 2192 192 2016 192
WIRE 1344 208 1280 208
WIRE 640 224 640 144
WIRE 1776 224 1776 192
WIRE 464 272 464 256
WIRE 464 272 272 272
WIRE -64 288 -64 160
WIRE -32 288 -64 288
WIRE 48 288 32 288
WIRE 144 288 48 288
WIRE 208 288 144 288
WIRE 2016 288 2016 192
WIRE 304 304 304 256
WIRE 304 304 272 304
WIRE 1648 320 1584 320
WIRE 1904 320 1904 192
WIRE 1904 320 1728 320
WIRE 48 336 48 288
WIRE 144 336 144 288
WIRE 1280 336 1280 208
WIRE 1296 336 1280 336
WIRE 1392 336 1360 336
WIRE 1456 336 1392 336
WIRE 1520 336 1456 336
WIRE 1616 352 1584 352
WIRE 1648 352 1616 352
WIRE 1776 352 1776 304
WIRE 1776 352 1728 352
WIRE -64 368 -64 288
WIRE 640 384 640 304
WIRE 1456 384 1456 336
WIRE 144 400 48 400
WIRE 304 400 304 304
WIRE 304 400 144 400
WIRE 1936 416 1936 336
WIRE 304 432 304 400
WIRE 464 432 464 272
WIRE 2128 432 2128 352
WIRE -384 464 -384 448
WIRE -384 464 -480 464
WIRE -64 464 -64 448
WIRE 1280 464 1280 336
WIRE -384 480 -384 464
WIRE 1392 496 1392 400
WIRE 1456 496 1456 448
WIRE 1456 496 1392 496
WIRE 1616 496 1616 352
WIRE 1616 496 1456 496
WIRE -480 528 -480 464
WIRE 464 544 464 512
WIRE 1280 640 1280 544
WIRE 1280 752 1280 720
WIRE 1744 752 1744 192
WIRE 1744 752 1280 752
FLAG 304 512 0
FLAG 464 624 0
FLAG -64 544 0
FLAG -480 528 0
FLAG -384 368 V+
FLAG 240 320 V+
FLAG 224 112 V+
FLAG 32 112 V+
FLAG -384 560 V-
FLAG 240 256 V-
FLAG 240 176 V-
FLAG 32 176 V-
FLAG 752 144 out
FLAG 1568 160 V+
FLAG 1376 160 V+
FLAG 1584 224 V-
FLAG 1376 224 V-
FLAG 2192 192 out2
FLAG 2128 432 0
FLAG 2016 352 0
FLAG 1552 368 V+
FLAG 1552 304 V-
FLAG 640 384 0
FLAG 1936 416 0
SYMBOL OpAmps\\LT1010 240 80 R0
SYMATTR InstName U1
SYMBOL OpAmps\\LT118A 32 144 R0
SYMATTR InstName U2
SYMBOL OpAmps\\LT118A 240 288 R180
SYMATTR InstName U3
SYMBOL cap 112 48 R0
SYMATTR InstName C1
SYMATTR Value 1n
SYMBOL res 288 0 R90
WINDOW 0 0 56 VBottom 2
WINDOW 3 32 56 VTop 2
SYMATTR InstName R1
SYMATTR Value 2k
SYMBOL res -48 464 R180
WINDOW 0 36 76 Left 2
WINDOW 3 36 40 Left 2
SYMATTR InstName R2
SYMATTR Value 2k
SYMBOL diode -32 304 R270
WINDOW 0 32 32 VTop 2
WINDOW 3 0 32 VBottom 2
SYMATTR InstName D1
SYMATTR Value 1N914
SYMBOL diode 128 336 R0
WINDOW 3 -22 91 Left 2
SYMATTR InstName D2
SYMATTR Value 1N914
SYMBOL cap 32 336 R0
SYMATTR InstName C2
SYMATTR Value 10p
SYMBOL res 448 128 R90
WINDOW 0 0 56 VBottom 2
WINDOW 3 32 56 VTop 2
SYMATTR InstName R3
SYMATTR Value 2
SYMBOL res 288 160 R0
SYMATTR InstName R4
SYMATTR Value 2k
SYMBOL res 448 160 R0
SYMATTR InstName R5
SYMATTR Value 2k
SYMBOL res 448 416 R0
SYMATTR InstName R6
SYMATTR Value 99.8k
SYMBOL res 288 416 R0
SYMATTR InstName R7
SYMATTR Value 99.8k
SYMBOL voltage 464 528 R0
WINDOW 123 0 0 Left 0
WINDOW 39 0 0 Left 0
SYMATTR InstName V1
SYMATTR Value 20
SYMBOL voltage -64 448 R0
WINDOW 123 0 0 Left 0
WINDOW 39 0 0 Left 0
SYMATTR InstName V2
SYMATTR Value 10
SYMBOL voltage -384 464 R0
WINDOW 123 0 0 Left 0
WINDOW 39 0 0 Left 0
SYMATTR InstName V3
SYMATTR Value 15
SYMBOL voltage -384 352 R0
WINDOW 123 0 0 Left 0
WINDOW 39 0 0 Left 0
SYMATTR InstName V4
SYMATTR Value 15
SYMBOL res 624 208 R0
SYMATTR InstName R8
SYMATTR Value R=if(10m>time>20m,2k,2)
SYMBOL OpAmps\\LT1010 1584 128 R0
WINDOW 3 9 0 Left 2
SYMATTR InstName U4
SYMBOL OpAmps\\LT118A 1376 192 R0
SYMATTR InstName U5
SYMBOL cap 1456 96 R0
SYMATTR InstName C4
SYMATTR Value 1n
SYMBOL res 1632 48 R90
WINDOW 0 0 56 VBottom 2
WINDOW 3 32 56 VTop 2
SYMATTR InstName R9
SYMATTR Value 2k
SYMBOL res 1296 560 R180
WINDOW 0 36 76 Left 2
WINDOW 3 36 40 Left 2
SYMATTR InstName R10
SYMATTR Value 2k
SYMBOL res 1888 176 R90
WINDOW 0 0 56 VBottom 2
WINDOW 3 32 56 VTop 2
SYMATTR InstName R11
SYMATTR Value 2
SYMBOL voltage 1280 736 R180
WINDOW 3 42 74 Left 2
WINDOW 123 0 0 Left 0
WINDOW 39 0 0 Left 0
SYMATTR InstName V6
SYMATTR Value 5
SYMBOL res 2112 256 R0
SYMATTR InstName R16
SYMATTR Value R=if(10m>time>20m,2k,2)
SYMBOL cap 2000 288 R0
SYMATTR InstName C6
SYMATTR Value 0
SYMBOL OpAmps\\LT118A 1552 336 R180
SYMATTR InstName U6
SYMBOL diode 1360 320 R90
WINDOW 0 0 32 VBottom 2
WINDOW 3 32 32 VTop 2
SYMATTR InstName D3
SYMATTR Value 1N914
SYMBOL voltage 1776 320 R180
WINDOW 3 -19 60 Left 2
WINDOW 123 0 0 Left 0
WINDOW 39 -19 32 Left 2
SYMATTR InstName V5
SYMATTR Value 0.2
SYMBOL diode 1472 448 R180
WINDOW 0 -17 59 Left 2
WINDOW 3 -67 -2 Left 2
SYMATTR InstName D4
SYMATTR Value 1N914
SYMBOL res 1744 336 R90
WINDOW 0 57 78 VBottom 2
WINDOW 3 28 28 VTop 2
SYMATTR InstName R12
SYMATTR Value 4k
SYMBOL cap 1376 336 R0
SYMATTR InstName C3
SYMATTR Value 1n
SYMBOL res 1744 304 R90
WINDOW 0 2 88 VBottom 2
WINDOW 3 -23 42 VTop 2
SYMATTR InstName R13
SYMATTR Value 2k
SYMBOL res 1920 240 R0
SYMATTR InstName R14
SYMATTR Value 20
TEXT -500 648 Left 2 !.tran 0.1
