Version 4
SHEET 1 980 680
WIRE 160 -864 32 -864
WIRE 256 -864 160 -864
WIRE 464 -864 320 -864
WIRE 416 -704 160 -704
WIRE 160 -688 160 -704
WIRE 160 -592 160 -608
WIRE 160 -592 16 -592
WIRE 240 -592 160 -592
WIRE 416 -576 416 -704
WIRE 416 -576 304 -576
WIRE 512 -576 416 -576
WIRE 240 -448 176 -448
WIRE 416 -432 304 -432
WIRE 192 -416 96 -416
WIRE 240 -416 192 -416
WIRE 416 -336 416 -432
WIRE 416 -336 192 -336
WIRE 448 -336 416 -336
WIRE 240 -256 160 -256
WIRE 400 -240 304 -240
WIRE 480 -240 400 -240
WIRE 192 -224 128 -224
WIRE 240 -224 192 -224
WIRE 192 -176 192 -224
WIRE 192 -32 192 -96
WIRE 400 -32 400 -240
WIRE 400 -32 192 -32
WIRE 416 16 224 16
WIRE 224 48 224 16
WIRE 32 128 32 112
WIRE 32 128 -64 128
WIRE 32 144 32 128
WIRE 224 160 224 128
WIRE 288 160 224 160
WIRE 416 176 416 16
WIRE 416 176 352 176
WIRE 480 176 416 176
WIRE -64 192 -64 128
WIRE 160 192 160 -256
WIRE 192 192 160 192
WIRE 288 192 192 192
WIRE 192 288 192 192
FLAG -64 192 0
FLAG 32 32 V+
FLAG 32 224 V-
FLAG 320 144 V+
FLAG 320 208 V-
FLAG 192 288 0
FLAG 272 -272 V-
FLAG 272 -208 V+
FLAG 224 160 inm
FLAG 480 176 fb
FLAG 480 -240 out_opa192
IOPIN 480 -240 Out
FLAG 128 -224 in_opa192
IOPIN 128 -224 In
FLAG 272 -400 V+
FLAG 272 -464 V-
FLAG 176 -448 0
FLAG 448 -336 out_opa189
FLAG 96 -416 in_opa189
FLAG 240 -560 0
FLAG 272 -608 V+
FLAG 272 -544 V-
FLAG 16 -592 in_ad8033
FLAG 512 -576 out_ad8033
FLAG 160 -784 0
FLAG 464 -864 lt1010_out
FLAG 32 -864 lt1010_in
FLAG 288 -832 V-
FLAG 272 -896 V+
SYMBOL voltage 32 128 R0
WINDOW 123 0 0 Left 0
WINDOW 39 0 0 Left 0
SYMATTR InstName V1
SYMATTR Value 15
SYMBOL voltage 32 16 R0
WINDOW 123 0 0 Left 0
WINDOW 39 0 0 Left 0
SYMATTR InstName V2
SYMATTR Value 15
SYMBOL OpAmps\\LT118A 320 176 R0
SYMATTR InstName U1
SYMBOL AutoGenerated\\OPA192 304 -240 R0
SYMATTR InstName U2
SYMBOL voltage 224 144 R180
WINDOW 123 24 124 Left 2
WINDOW 39 0 0 Left 0
SYMATTR Value2 AC 1
SYMATTR InstName V3
SYMATTR Value 0
SYMBOL voltage 192 -192 R0
WINDOW 123 24 124 Left 2
WINDOW 39 0 0 Left 0
SYMATTR Value2 AC 1
SYMATTR InstName V4
SYMATTR Value 0
SYMBOL AutoGenerated\\OPA189 304 -432 R0
SYMATTR InstName U3
SYMBOL voltage 192 -432 R0
WINDOW 123 24 124 Left 2
WINDOW 39 0 0 Left 0
SYMATTR Value2 AC 1
SYMATTR InstName V5
SYMATTR Value 0
SYMBOL OpAmps\\AD8033 272 -640 R0
SYMATTR InstName U4
SYMBOL voltage 160 -592 R180
WINDOW 123 24 124 Left 2
WINDOW 39 0 0 Left 0
SYMATTR Value2 AC 1
SYMATTR InstName V6
SYMATTR Value 0
SYMBOL OpAmps\\LT1010 288 -928 R0
SYMATTR InstName U5
SYMBOL voltage 160 -880 R0
WINDOW 123 24 124 Left 2
WINDOW 39 0 0 Left 0
SYMATTR Value2 AC 1
SYMATTR InstName V7
SYMATTR Value 0
TEXT -88 312 Left 2 !;tran 0.015
TEXT 688 -56 Left 2 !.ac dec 0.015 0.1 40MEG
