Version 4
SHEET 1 2112 1136
WIRE 48 -320 48 -352
WIRE 160 -320 48 -320
WIRE 48 -288 48 -320
WIRE 160 -288 160 -320
WIRE 160 -208 160 -224
WIRE 160 -208 48 -208
WIRE -224 -192 -224 -208
WIRE 160 -176 160 -208
WIRE 736 -144 400 -144
WIRE 1264 -144 736 -144
WIRE -224 -80 -224 -112
WIRE -160 -80 -224 -80
WIRE 736 -80 736 -144
WIRE 160 -64 160 -96
WIRE 432 -64 160 -64
WIRE 560 -64 512 -64
WIRE -224 -48 -224 -80
WIRE -160 -48 -160 -80
WIRE 160 -16 160 -64
WIRE 304 -16 160 -16
WIRE 400 -16 368 -16
WIRE 560 -16 560 -64
WIRE -224 48 -224 32
WIRE 1264 64 1264 -144
WIRE 272 80 272 64
WIRE 160 96 160 -16
WIRE 240 96 160 96
WIRE 400 112 400 -16
WIRE 400 112 304 112
WIRE 448 112 400 112
WIRE 560 112 560 48
WIRE 560 112 512 112
WIRE 736 112 736 0
WIRE 736 112 560 112
WIRE 880 112 736 112
WIRE 1200 112 880 112
WIRE 240 128 -112 128
WIRE 272 160 272 144
WIRE -112 192 -112 128
WIRE 880 224 880 112
WIRE 880 304 880 288
WIRE 976 304 880 304
WIRE -112 320 -112 272
WIRE 976 336 976 304
WIRE 1264 336 1264 160
WIRE 784 384 784 368
WIRE 880 416 880 304
WIRE 880 416 816 416
WIRE 752 432 720 432
WIRE 784 464 784 448
WIRE 976 464 976 400
WIRE 880 496 880 416
WIRE 720 640 720 432
WIRE 880 640 880 560
WIRE 880 640 720 640
WIRE 976 640 976 544
WIRE 976 640 880 640
WIRE 16 704 -112 704
WIRE 1264 720 1264 416
WIRE 1296 720 1264 720
WIRE 1264 736 1264 720
WIRE 1456 736 1264 736
WIRE 1264 752 1264 736
WIRE 1360 752 1264 752
WIRE -112 768 -112 704
WIRE 1264 768 1264 752
WIRE 1456 768 1424 768
WIRE 1360 784 1360 752
WIRE 1664 816 1632 816
WIRE 1264 864 1264 848
WIRE 1360 864 1360 848
WIRE 1360 864 1264 864
WIRE 1456 864 1424 864
WIRE 1264 880 1264 864
WIRE 1360 880 1264 880
WIRE -112 896 -112 848
WIRE 1264 896 1264 880
WIRE 1360 896 1360 880
WIRE 1456 896 1360 896
WIRE 1264 992 1264 976
FLAG -160 -48 0
FLAG -224 -208 +V
FLAG 272 64 +V
FLAG 400 -144 +V
FLAG -112 320 0
FLAG -112 896 0
FLAG 784 464 +V
FLAG 1264 992 0
FLAG -224 48 -V
FLAG 272 160 -V
FLAG 784 368 -V
FLAG 1296 720 out
IOPIN 1296 720 Out
FLAG 1488 720 +V
FLAG 1488 912 -V
FLAG 752 400 out
IOPIN 752 400 Out
FLAG 1664 816 Vread
IOPIN 1664 816 Out
FLAG 48 -352 Vread
IOPIN 48 -352 Out
FLAG 240 -224 out
IOPIN 240 -224 Out
FLAG 1568 880 0
FLAG 48 -128 0
SYMBOL npn 1200 64 R0
SYMATTR InstName Q1
SYMATTR Value ZTX1048A
SYMBOL voltage -224 -208 M0
WINDOW 123 0 0 Left 0
WINDOW 39 0 0 Left 0
SYMATTR InstName V1
SYMATTR Value 25V
SYMBOL Misc\\EuropeanResistor 1248 320 R0
SYMATTR InstName R9
SYMATTR Value 1
SYMBOL voltage -112 176 M0
WINDOW 123 0 0 Left 0
WINDOW 39 0 0 Left 0
SYMATTR InstName V3
SYMATTR Value PULSE(0 2.5 0 5m 5m 0 10m 1)
SYMBOL voltage -112 752 M0
WINDOW 123 0 0 Left 0
WINDOW 39 0 0 Left 0
SYMATTR InstName V4
SYMATTR Value 0.5
SYMBOL diode 512 96 R90
WINDOW 0 0 32 VBottom 2
WINDOW 3 32 32 VTop 2
SYMATTR InstName D1
SYMATTR Value 1N4148
SYMBOL current 736 -80 R0
WINDOW 123 0 0 Left 0
WINDOW 39 24 108 Left 2
SYMATTR SpiceLine load
SYMATTR InstName I1
SYMATTR Value 3mA
SYMBOL Misc\\EuropeanResistor 1280 752 M0
SYMATTR InstName RL
SYMATTR Value r=if(time>1.5m&time<3.5m,1,1k)
SYMBOL voltage -224 -64 M0
WINDOW 123 0 0 Left 0
WINDOW 39 0 0 Left 0
SYMATTR InstName V2
SYMATTR Value 3V
SYMBOL Misc\\EuropeanResistor 144 -192 R0
SYMATTR InstName R11
SYMATTR Value 0
SYMBOL cap 576 48 R180
WINDOW 0 24 56 Left 2
WINDOW 3 24 8 Left 2
SYMATTR InstName C2
SYMATTR Value 10nF
SYMBOL Misc\\EuropeanResistor 528 -80 R90
WINDOW 0 5 56 VBottom 2
WINDOW 3 27 56 VTop 2
SYMATTR InstName R12
SYMATTR Value 1k
SYMBOL cap 960 400 M180
WINDOW 0 24 56 Left 2
WINDOW 3 24 8 Left 2
SYMATTR InstName C3
SYMATTR Value 500p
SYMBOL Misc\\EuropeanResistor 960 560 M180
WINDOW 0 31 76 Left 2
WINDOW 3 31 40 Left 2
SYMATTR InstName R13
SYMATTR Value 10k
SYMBOL diode 896 496 M0
SYMATTR InstName D6
SYMATTR Value 1N4148
SYMBOL Opamps\\AD8675 784 480 M180
SYMATTR InstName U4
SYMBOL Opamps\\AD8675 272 48 R0
SYMATTR InstName U5
SYMBOL cap 1344 784 R0
SYMATTR InstName C4
SYMATTR Value 1µ
SYMBOL LED 896 224 M0
SYMATTR InstName D7
SYMATTR Value NSCW100
SYMATTR Description Diode
SYMATTR Type diode
SYMBOL Opamps\\AD8421 1488 816 R0
SYMATTR InstName U1
SYMBOL res 1248 880 R0
SYMATTR InstName R1
SYMATTR Value 0
SYMBOL res 32 -304 R0
SYMATTR InstName R2
SYMATTR Value 4k
SYMBOL res 32 -224 R0
SYMATTR InstName R3
SYMATTR Value 0.8k
SYMBOL cap 144 -288 R0
SYMATTR InstName C1
SYMATTR Value 1n
TEXT -144 992 Left 2 !.tran 5m
