Version 4
SHEET 1 1888 1084
WIRE 1264 -208 160 -208
WIRE -224 -192 -224 -208
WIRE 160 -176 160 -208
WIRE 736 -144 400 -144
WIRE 1120 -144 736 -144
WIRE -224 -80 -224 -112
WIRE -160 -80 -224 -80
WIRE 736 -80 736 -144
WIRE 160 -64 160 -96
WIRE 432 -64 160 -64
WIRE 560 -64 512 -64
WIRE -224 -48 -224 -80
WIRE -160 -48 -160 -80
WIRE 160 -16 160 -64
WIRE 304 -16 160 -16
WIRE 400 -16 368 -16
WIRE 560 -16 560 -64
WIRE -224 48 -224 32
WIRE 1120 64 1120 -144
WIRE 272 80 272 64
WIRE 160 96 160 -16
WIRE 240 96 160 96
WIRE 400 112 400 -16
WIRE 400 112 304 112
WIRE 448 112 400 112
WIRE 560 112 560 48
WIRE 560 112 512 112
WIRE 640 112 560 112
WIRE 736 112 736 0
WIRE 736 112 640 112
WIRE 880 112 736 112
WIRE 1056 112 880 112
WIRE 240 128 -112 128
WIRE 272 160 272 144
WIRE -112 192 -112 128
WIRE 640 192 640 112
WIRE 880 224 880 112
WIRE 576 240 464 240
WIRE 880 304 880 288
WIRE 976 304 880 304
WIRE -112 320 -112 272
WIRE 640 320 640 288
WIRE 976 336 976 304
WIRE 1632 368 1632 352
WIRE 784 384 784 368
WIRE 1600 384 1392 384
WIRE 496 400 432 400
WIRE 624 400 576 400
WIRE 672 400 624 400
WIRE 752 400 672 400
WIRE 1792 400 1664 400
WIRE 880 416 880 304
WIRE 880 416 816 416
WIRE 1600 416 1552 416
WIRE 752 432 720 432
WIRE 288 448 -16 448
WIRE 1632 448 1632 432
WIRE 784 464 784 448
WIRE 976 464 976 400
WIRE 144 496 144 480
WIRE 880 496 880 416
WIRE 592 512 624 400
WIRE 672 512 672 400
WIRE 1264 512 1264 -208
WIRE 1360 512 1264 512
WIRE 1552 528 1552 416
WIRE 1792 528 1792 400
WIRE 1792 528 1552 528
WIRE -16 544 -16 448
WIRE 0 544 -16 544
WIRE 1360 544 1360 512
WIRE 1360 544 1344 544
WIRE 1552 544 1552 528
WIRE 1552 544 1360 544
WIRE 0 608 -48 608
WIRE 336 640 272 640
WIRE 432 640 432 400
WIRE 432 640 416 640
WIRE 720 640 720 432
WIRE 880 640 880 560
WIRE 880 640 720 640
WIRE 976 640 976 544
WIRE 976 640 880 640
WIRE 1008 640 976 640
WIRE 1120 640 1120 160
WIRE 1120 640 1088 640
WIRE 1152 640 1120 640
WIRE 1264 640 1232 640
WIRE -48 656 -48 608
WIRE 1344 656 1344 544
WIRE 1360 672 1344 656
WIRE -112 704 0 672
WIRE 672 704 672 576
WIRE 672 704 608 704
WIRE 976 704 672 704
WIRE 1056 720 1056 704
WIRE 1264 720 1264 640
WIRE 1296 720 1264 720
WIRE 288 736 288 448
WIRE 288 736 272 736
WIRE 592 736 592 592
WIRE 592 736 288 736
WIRE 608 736 608 704
WIRE 608 736 592 736
WIRE 1360 736 1360 672
WIRE 1360 736 1056 720
WIRE 1264 752 1264 720
WIRE 1360 752 1264 752
WIRE -112 768 -112 704
WIRE 1264 768 1264 752
WIRE 1360 784 1360 752
WIRE 144 816 144 784
WIRE 1264 864 1264 848
WIRE 1360 864 1360 848
WIRE 1360 864 1264 864
WIRE -112 896 -112 848
WIRE 1264 896 1264 864
FLAG -160 -48 0
FLAG -224 -208 +V
FLAG 272 64 +V
FLAG 400 -144 +V
FLAG -112 320 0
FLAG -112 896 0
FLAG 640 320 0
FLAG 784 464 +V
FLAG 1264 896 0
FLAG -224 48 -V
FLAG 272 160 -V
FLAG 784 368 -V
FLAG 1296 720 out
IOPIN 1296 720 Out
FLAG 1792 800 0
FLAG 1632 448 +V
FLAG 1632 352 -V
FLAG 1392 384 out
IOPIN 1392 384 Out
FLAG 144 480 +V
FLAG 144 816 -V
FLAG 1792 720 0
FLAG -48 656 0
SYMBOL npn 1056 64 R0
SYMATTR InstName Q1
SYMATTR Value ZTX1048A
SYMBOL voltage -224 -208 M0
WINDOW 123 0 0 Left 0
WINDOW 39 0 0 Left 0
SYMATTR InstName V1
SYMATTR Value 25V
SYMBOL Misc\\EuropeanResistor 1136 656 R270
WINDOW 0 27 56 VTop 2
WINDOW 3 5 56 VBottom 2
SYMATTR InstName R9
SYMATTR Value 1R
SYMBOL voltage -112 176 M0
WINDOW 123 0 0 Left 0
WINDOW 39 0 0 Left 0
SYMATTR InstName V3
SYMATTR Value PULSE(0 12 0 10m 10m 0 20m 1)
SYMBOL voltage -112 752 M0
WINDOW 123 0 0 Left 0
WINDOW 39 0 0 Left 0
SYMATTR InstName V4
SYMATTR Value 1
SYMBOL Misc\\EuropeanResistor 592 384 R90
WINDOW 0 5 56 VBottom 2
WINDOW 3 27 56 VTop 2
SYMATTR InstName R7
SYMATTR Value 4k
SYMBOL Misc\\EuropeanResistor 576 496 R0
SYMATTR InstName R8
SYMATTR Value 1k
SYMBOL pnp 576 288 M180
WINDOW 0 56 32 Left 2
WINDOW 3 56 68 Left 2
SYMATTR InstName Q2
SYMATTR Value BC557B
SYMBOL diode 512 96 R90
WINDOW 0 0 32 VBottom 2
WINDOW 3 32 32 VTop 2
SYMATTR InstName D1
SYMATTR Value 1N4148
SYMBOL current 736 -80 R0
WINDOW 123 0 0 Left 0
WINDOW 39 24 108 Left 2
SYMATTR SpiceLine load
SYMATTR InstName I1
SYMATTR Value 3mA
SYMBOL Misc\\EuropeanResistor 1808 704 M0
SYMATTR InstName RL
SYMATTR Value r=if(time>3m&time<7m,1,1k)
SYMBOL voltage -224 -64 M0
WINDOW 123 0 0 Left 0
WINDOW 39 0 0 Left 0
SYMATTR InstName V2
SYMATTR Value 3V
SYMBOL diode 368 -32 R90
WINDOW 0 0 32 VBottom 2
WINDOW 3 32 32 VTop 2
SYMATTR InstName D3
SYMATTR Value 1N4148
SYMBOL Misc\\EuropeanResistor 144 -192 R0
SYMATTR InstName R11
SYMATTR Value 1k
SYMBOL Misc\\EuropeanResistor 1104 624 R90
WINDOW 0 5 56 VBottom 2
WINDOW 3 27 56 VTop 2
SYMATTR InstName R10
SYMATTR Value 10k
SYMBOL cap 576 48 R180
WINDOW 0 24 56 Left 2
WINDOW 3 24 8 Left 2
SYMATTR InstName C2
SYMATTR Value 10nF
SYMBOL Misc\\EuropeanResistor 528 -80 R90
WINDOW 0 5 56 VBottom 2
WINDOW 3 27 56 VTop 2
SYMATTR InstName R12
SYMATTR Value 1k
SYMBOL cap 960 400 M180
WINDOW 0 24 56 Left 2
WINDOW 3 24 8 Left 2
SYMATTR InstName C3
SYMATTR Value 500p
SYMBOL Misc\\EuropeanResistor 960 560 M180
WINDOW 0 31 76 Left 2
WINDOW 3 31 40 Left 2
SYMATTR InstName R13
SYMATTR Value 10k
SYMBOL diode 896 496 M0
SYMATTR InstName D6
SYMATTR Value 1N4148
SYMBOL Opamps\\AD8675 784 480 M180
SYMATTR InstName U4
SYMBOL Opamps\\AD8675 272 48 R0
SYMATTR InstName U5
SYMBOL cap 1344 784 R0
SYMATTR InstName C4
SYMATTR Value 200n
SYMBOL Misc\\EuropeanPolcap 656 512 R0
SYMATTR InstName C5
SYMATTR Value 100n
SYMATTR SpiceLine Rser=100m
SYMBOL LED 896 224 M0
SYMATTR InstName D7
SYMATTR Value NSCW100
SYMATTR Description Diode
SYMATTR Type diode
SYMBOL res 1248 752 R0
SYMATTR InstName R14
SYMATTR Value 1k
SYMBOL res 1072 688 R90
WINDOW 0 0 56 VBottom 2
WINDOW 3 32 56 VTop 2
SYMATTR InstName R15
SYMATTR Value 1µ
SYMBOL Opamps\\AD8675 1632 464 M180
SYMATTR InstName U1
SYMBOL Opamps\\AD8479 144 640 R0
SYMATTR InstName U2
SYMBOL res 432 624 R90
WINDOW 0 0 56 VBottom 2
WINDOW 3 32 56 VTop 2
SYMATTR InstName R1
SYMATTR Value 1µ
TEXT -144 992 Left 2 !.tran 10m
