Version 4
SHEET 1 3544 2324
WIRE 1568 -320 1568 -336
WIRE 1760 -304 1600 -304
WIRE 1152 -288 1120 -288
WIRE 1232 -288 1216 -288
WIRE 1360 -288 1328 -288
WIRE 1472 -288 1440 -288
WIRE 1536 -288 1472 -288
WIRE 1648 -272 1600 -272
WIRE 1568 -240 1568 -256
WIRE 1760 -240 1760 -304
WIRE 1296 -208 1296 -240
WIRE 1472 -208 1472 -288
WIRE 1472 -208 1296 -208
WIRE 880 -64 880 -176
WIRE 976 -64 880 -64
WIRE 880 -16 880 -64
WIRE 2432 0 2432 -80
WIRE 1648 16 1648 -272
WIRE 1648 16 1328 16
WIRE 976 32 944 32
WIRE 2432 112 2432 80
WIRE 880 128 880 80
WIRE 1328 128 1328 16
WIRE 1328 128 880 128
WIRE 1392 128 1328 128
WIRE 2112 128 1472 128
WIRE 880 208 880 128
WIRE 2944 208 2944 128
WIRE 2976 208 2944 208
WIRE 224 240 224 224
WIRE 2432 240 2432 192
WIRE 2944 240 2944 208
WIRE 3040 240 2944 240
WIRE 976 256 976 240
WIRE 976 256 944 256
WIRE 1008 256 976 256
WIRE 2944 256 2944 240
WIRE 3040 272 3040 240
WIRE 1216 288 1216 272
WIRE 1328 288 1328 128
WIRE 1392 288 1328 288
WIRE 1504 288 1472 288
WIRE 1600 288 1504 288
WIRE 1760 288 1600 288
WIRE 1120 304 1120 -16
WIRE 1120 304 1072 304
WIRE 1504 320 1504 288
WIRE 224 352 224 320
WIRE 288 352 224 352
WIRE 880 352 880 304
WIRE 1008 352 880 352
WIRE 2944 352 2944 336
WIRE 3040 352 3040 336
WIRE 3040 352 2944 352
WIRE 224 384 224 352
WIRE 288 384 288 352
WIRE 2944 384 2944 352
WIRE 1600 416 1600 288
WIRE 880 448 880 352
WIRE 976 448 880 448
WIRE 1120 448 1120 304
WIRE 1120 448 1056 448
WIRE 1360 464 1184 464
WIRE 1440 464 1360 464
WIRE 224 480 224 464
WIRE 1888 480 1888 400
WIRE 1360 496 1360 464
WIRE 1696 512 1696 496
WIRE 880 528 880 448
WIRE 1760 528 1760 288
WIRE 1760 528 1728 528
WIRE 1120 544 1120 448
WIRE 1184 544 1184 464
WIRE 1184 544 1120 544
WIRE 1216 544 1184 544
WIRE 1328 544 1296 544
WIRE 1440 544 1440 464
WIRE 1440 544 1424 544
WIRE 1504 544 1504 464
WIRE 1504 544 1440 544
WIRE 1600 544 1600 480
WIRE 1600 544 1568 544
WIRE 1664 544 1600 544
WIRE 1888 560 1728 560
WIRE 1696 592 1696 576
WIRE 2288 768 2288 704
WIRE 1600 832 1424 832
WIRE 1744 832 1600 832
WIRE 1600 864 1600 832
WIRE 2176 880 2176 864
WIRE 2288 896 2288 848
WIRE 2288 896 2208 896
WIRE 512 912 480 912
WIRE 1120 912 1120 544
WIRE 1424 912 1424 832
WIRE 1424 912 1120 912
WIRE 1456 912 1424 912
WIRE 1568 912 1536 912
WIRE 1744 912 1744 832
WIRE 1744 912 1664 912
WIRE 1792 912 1744 912
WIRE 1872 912 1792 912
WIRE 2048 912 1936 912
WIRE 2144 912 2048 912
WIRE 2288 928 2208 928
WIRE 256 944 224 944
WIRE 2176 960 2176 944
WIRE 560 976 560 944
WIRE 1792 976 1792 912
WIRE 304 1008 304 976
WIRE 2048 1040 2048 912
WIRE 2080 1040 2048 1040
WIRE 2288 1040 2288 928
WIRE 2288 1040 2144 1040
WIRE 480 1088 480 912
WIRE 560 1088 560 1056
WIRE 560 1088 480 1088
WIRE 1792 1088 1792 1040
WIRE 1840 1088 1792 1088
WIRE 2288 1088 2288 1040
WIRE 2288 1088 1920 1088
WIRE 224 1120 224 944
WIRE 304 1120 304 1088
WIRE 304 1120 224 1120
WIRE 2288 1120 2288 1088
WIRE 560 1152 560 1088
WIRE 304 1184 304 1120
WIRE 2416 1200 2288 1200
FLAG 288 384 0
FLAG 224 224 +V
FLAG 2176 960 +V
FLAG 1696 496 +V
FLAG 224 480 -V
FLAG 2176 864 -V
FLAG 1696 592 -V
FLAG 2112 128 out
IOPIN 2112 128 Out
FLAG 1888 400 out
IOPIN 1888 400 Out
FLAG 2416 1200 out
IOPIN 2416 1200 Out
FLAG 880 528 -V
FLAG 2432 -80 0
FLAG 1568 -240 +V
FLAG 1568 -336 -V
FLAG 880 -176 +V
FLAG 1760 -160 out
IOPIN 1760 -160 Out
FLAG 560 848 +V
FLAG 560 1152 -V
FLAG 304 880 +V
FLAG 304 1184 -V
FLAG 1216 288 0
FLAG 2944 384 0
FLAG 2288 704 0
FLAG 2944 128 out
IOPIN 2944 128 Out
SYMBOL voltage 224 224 M0
WINDOW 123 0 0 Left 0
WINDOW 39 0 0 Left 0
SYMATTR InstName V1
SYMATTR Value 10
SYMBOL Misc\\EuropeanResistor 1376 144 R270
WINDOW 0 27 56 VTop 2
WINDOW 3 -14 56 VBottom 2
SYMATTR InstName R9
SYMATTR Value 0.1
SYMBOL voltage 2288 752 R0
WINDOW 123 0 0 Left 0
WINDOW 39 0 0 Left 0
SYMATTR InstName V3
SYMATTR Value PULSE(0 12 0 10m 10m 0 20m 1)
SYMBOL voltage 1888 464 M0
WINDOW 123 0 0 Left 0
WINDOW 39 0 0 Left 0
SYMATTR InstName V4
SYMATTR Value 0.1
SYMBOL current 1056 448 M270
WINDOW 123 0 0 Left 0
WINDOW 39 24 108 Left 2
WINDOW 0 24 -10 Left 2
SYMATTR InstName I1
SYMATTR Value 0.5m
SYMBOL Misc\\EuropeanResistor 2960 240 M0
SYMATTR InstName RL
SYMATTR Value r=if(time>3m&time<7m,1,1k)
SYMBOL voltage 224 368 M0
WINDOW 123 0 0 Left 0
WINDOW 39 0 0 Left 0
SYMATTR InstName V2
SYMATTR Value 25
SYMBOL diode 2144 1056 M270
WINDOW 0 32 32 VTop 2
WINDOW 3 0 32 VBottom 2
SYMATTR InstName D3
SYMATTR Value 1N4148
SYMBOL Misc\\EuropeanResistor 2304 1216 R180
WINDOW 0 31 76 Left 2
WINDOW 3 31 40 Left 2
SYMATTR InstName R11
SYMATTR Value 1k
SYMBOL Misc\\EuropeanResistor 1376 304 R270
WINDOW 0 27 56 VTop 2
WINDOW 3 5 56 VBottom 2
SYMATTR InstName R10
SYMATTR Value 10k
SYMBOL cap 1776 976 R0
SYMATTR InstName C2
SYMATTR Value 10n
SYMBOL Misc\\EuropeanResistor 1824 1104 R270
WINDOW 0 27 56 VTop 2
WINDOW 3 5 56 VBottom 2
SYMATTR InstName R12
SYMATTR Value 1k
SYMBOL cap 1520 400 M0
SYMATTR InstName C3
SYMATTR Value 500p
SYMBOL Misc\\EuropeanResistor 1520 304 M0
SYMATTR InstName R13
SYMATTR Value 10k
SYMBOL diode 1584 480 M180
WINDOW 0 24 64 Left 2
WINDOW 3 24 0 Left 2
SYMATTR InstName D6
SYMATTR Value 1N4148
SYMBOL Opamps\\AD8675 1696 480 M0
SYMATTR InstName U4
SYMBOL Opamps\\AD8675 2176 976 R180
SYMATTR InstName U5
SYMBOL cap 3024 272 R0
SYMATTR InstName C4
SYMATTR Value 100n
SYMBOL LED 1568 560 M270
WINDOW 0 72 32 VTop 2
WINDOW 3 0 32 VBottom 2
SYMATTR InstName D7
SYMATTR Value NSCW100
SYMATTR Description Diode
SYMATTR Type diode
SYMBOL pnp 944 304 R180
WINDOW 3 75 79 Left 2
SYMATTR Value D45H11
SYMATTR InstName Q1
SYMBOL LED 1936 928 M270
WINDOW 0 72 32 VTop 2
WINDOW 3 0 32 VBottom 2
SYMATTR InstName D2
SYMATTR Value NSCW100
SYMATTR Description Diode
SYMATTR Type diode
SYMBOL voltage 2912 496 M0
WINDOW 123 0 0 Left 0
WINDOW 39 0 0 Left 0
SYMATTR InstName V5
SYMATTR Value 1
SYMBOL voltage 2432 -16 R0
WINDOW 123 0 0 Left 0
WINDOW 39 0 0 Left 0
SYMATTR InstName V7
SYMATTR Value PULSE(0 10 0 20m 0)
SYMBOL res 2416 96 R0
SYMATTR InstName R2
SYMATTR Value 1
SYMBOL Opamps\\AD8675 1568 -224 R180
SYMATTR InstName U1
SYMBOL npn 944 -16 M0
SYMATTR InstName Q3
SYMATTR Value 2SCR542P
SYMBOL voltage 1760 -256 M0
WINDOW 123 0 0 Left 0
WINDOW 39 0 0 Left 0
SYMATTR InstName V6
SYMATTR Value 0.01
SYMBOL njf 512 848 R0
SYMATTR InstName J1
SYMATTR Value J202
SYMBOL res 544 960 R0
SYMATTR InstName R3
SYMATTR Value 850
SYMBOL njf 256 880 R0
SYMATTR InstName J2
SYMATTR Value J202
SYMBOL res 288 992 R0
SYMATTR InstName R4
SYMATTR Value 223
SYMBOL njf 1664 864 R90
SYMATTR InstName J3
SYMATTR Value J202
SYMBOL res 1552 896 R90
WINDOW 0 0 56 VBottom 2
WINDOW 3 32 56 VTop 2
SYMATTR InstName R1
SYMATTR Value 850
SYMBOL njf 1424 496 R90
SYMATTR InstName J4
SYMATTR Value J202
SYMBOL res 1312 528 R90
WINDOW 0 0 56 VBottom 2
WINDOW 3 32 56 VTop 2
SYMATTR InstName R5
SYMATTR Value 850
SYMBOL njf 1232 -240 R270
SYMATTR InstName J5
SYMATTR Value J202
SYMBOL res 1344 -272 R270
WINDOW 0 32 56 VTop 2
WINDOW 3 0 56 VBottom 2
SYMATTR InstName R6
SYMATTR Value 223
SYMBOL npn 1040 -64 M0
SYMATTR InstName Q4
SYMATTR Value 2N3904
SYMBOL LED 1152 -304 M90
WINDOW 0 0 32 VBottom 2
WINDOW 3 72 32 VTop 2
SYMATTR InstName D1
SYMATTR Value NSCW100
SYMATTR Description Diode
SYMATTR Type diode
SYMBOL pnp 1072 352 R180
SYMATTR InstName Q2
SYMATTR Value 2N3906
TEXT -144 992 Left 2 !.tran 10m
