Version 4
SHEET 1 4132 2964
WIRE 800 -176 736 -176
WIRE 1600 -160 1600 -208
WIRE 1536 -112 1504 -112
WIRE 736 -96 736 -176
WIRE 400 -16 384 -16
WIRE 608 -16 496 -16
WIRE 624 -16 608 -16
WIRE 736 -16 704 -16
WIRE 864 -16 736 -16
WIRE 1360 -16 1360 -64
WIRE 1360 -16 1104 -16
WIRE 1504 -16 1504 -112
WIRE 1504 -16 1360 -16
WIRE 1520 -16 1504 -16
WIRE 1600 -16 1600 -64
WIRE 2544 -16 1600 -16
WIRE 2608 -16 2544 -16
WIRE 1600 32 1600 -16
WIRE 1504 80 1504 -16
WIRE 1536 80 1504 80
WIRE 864 96 864 -16
WIRE 976 96 864 96
WIRE -48 112 -48 96
WIRE -48 112 -112 112
WIRE 864 128 864 96
WIRE 2544 128 2544 -16
WIRE 2848 128 2848 -16
WIRE -48 144 -48 112
WIRE 976 144 976 96
WIRE 1600 144 1600 128
WIRE -112 160 -112 112
WIRE 800 160 800 -176
WIRE 800 160 576 160
WIRE 3248 160 3248 80
WIRE 448 176 448 48
WIRE 512 176 448 176
WIRE 608 192 608 -16
WIRE 608 192 576 192
WIRE 3200 224 3168 224
WIRE 864 272 864 208
WIRE 2848 272 2848 208
WIRE 3248 272 3248 256
WIRE 1568 304 1568 256
WIRE 2544 336 2544 208
WIRE 2576 336 2544 336
WIRE 3168 352 3168 224
WIRE 3248 352 3168 352
WIRE 2544 368 2544 336
WIRE 2848 368 2848 352
WIRE 2848 368 2544 368
WIRE 3248 400 3248 352
WIRE 2544 432 2544 368
WIRE 2560 432 2544 432
WIRE 1776 448 1776 352
WIRE 1776 448 1760 448
WIRE 1888 448 1888 256
WIRE 1888 448 1776 448
WIRE 1952 448 1888 448
WIRE 2256 448 2032 448
WIRE 1104 464 1104 -16
WIRE 1184 464 1104 464
WIRE 1392 464 1248 464
WIRE 1568 464 1568 400
WIRE 1568 464 1488 464
WIRE 1632 464 1632 352
WIRE 1632 464 1568 464
WIRE 1696 464 1632 464
WIRE 2544 464 2544 432
WIRE 1856 480 1760 480
WIRE 1456 544 1456 512
WIRE 1488 544 1488 464
WIRE 1488 544 1456 544
WIRE 2544 608 2544 544
WIRE 1856 624 1856 480
WIRE 2400 928 2336 928
WIRE 2224 944 2192 944
WIRE 2352 960 2336 960
WIRE 1824 1008 1792 1008
WIRE 1984 1008 1824 1008
WIRE 2160 1008 2064 1008
WIRE 1120 1024 1104 1024
WIRE 1248 1024 1200 1024
WIRE 1376 1024 1312 1024
WIRE 1488 1024 1472 1024
WIRE 1728 1024 1568 1024
WIRE 1904 1040 1792 1040
WIRE 2352 1056 2336 1056
WIRE 2400 1088 2336 1088
WIRE 1440 1104 1440 1072
WIRE 1568 1104 1568 1024
WIRE 1568 1104 1440 1104
WIRE 1904 1136 1904 1040
WIRE 1568 1152 1568 1104
WIRE 1648 1152 1568 1152
WIRE 1760 1152 1728 1152
WIRE 1824 1152 1824 1008
WIRE 1904 1264 1904 1216
WIRE 1600 2688 1600 2592
WIRE 1600 2688 1584 2688
WIRE 1632 2688 1600 2688
WIRE 1792 2688 1712 2688
WIRE 1104 2704 1104 1024
WIRE 1168 2704 1104 2704
WIRE 1216 2704 1168 2704
WIRE 1344 2704 1312 2704
WIRE 1456 2704 1456 2592
WIRE 1456 2704 1408 2704
WIRE 1520 2704 1456 2704
WIRE 1680 2720 1584 2720
WIRE 1168 2784 1168 2704
WIRE 1280 2784 1280 2752
WIRE 1280 2784 1168 2784
WIRE 1680 2864 1680 2720
FLAG -48 16 V+
FLAG 544 208 V+
FLAG -48 224 V-
FLAG 544 144 V-
FLAG -112 160 0
FLAG 384 -16 V+
FLAG 864 272 0
FLAG 976 208 0
FLAG 1728 432 V+
FLAG 1728 496 V-
FLAG 1600 -208 V+
FLAG 2544 608 0
FLAG 1856 704 0
FLAG 1360 -144 V+
FLAG 3248 400 0
FLAG 3248 80 V+
FLAG 1600 144 V-
FLAG 2192 944 0
FLAG 2304 1104 V+
FLAG 2304 912 V-
FLAG 2608 -16 OUT+
IOPIN 2608 -16 In
FLAG 2400 1088 OUT+
IOPIN 2400 1088 In
FLAG 2400 928 OUT-
IOPIN 2400 928 In
FLAG 2576 336 OUT-
IOPIN 2576 336 In
FLAG 2560 432 SHUNT
IOPIN 2560 432 In
FLAG 2256 448 SHUNT
IOPIN 2256 448 In
FLAG 1760 992 V+
FLAG 1760 1056 V-
FLAG 1904 1344 0
FLAG 1552 2672 V+
FLAG 1552 2736 V-
FLAG 1680 2944 0
FLAG 1792 2688 SHUNT
IOPIN 1792 2688 In
FLAG 3008 240 OUT+
IOPIN 3008 240 In
FLAG 3008 304 SHUNT
IOPIN 3008 304 In
SYMBOL Opamps\\ADA4625-2 544 240 R180
SYMATTR InstName U1
SYMBOL voltage -48 0 R0
WINDOW 123 0 0 Left 0
WINDOW 39 0 0 Left 0
SYMATTR InstName V1
SYMATTR Value 15
SYMBOL voltage -48 128 R0
WINDOW 123 0 0 Left 0
WINDOW 39 0 0 Left 0
SYMATTR InstName V2
SYMATTR Value 5
SYMBOL npn 400 48 R270
SYMATTR InstName Q1
SYMATTR Value 2N2222
SYMBOL res 848 112 R0
SYMATTR InstName R1
SYMATTR Value 2
SYMBOL res 720 -32 R90
WINDOW 0 0 56 VBottom 2
WINDOW 3 32 56 VTop 2
SYMATTR InstName R2
SYMATTR Value 1
SYMBOL voltage 736 -112 R0
WINDOW 123 0 0 Left 0
WINDOW 39 0 0 Left 0
SYMATTR InstName V3
SYMATTR Value 0.5
SYMBOL cap 960 144 R0
SYMATTR InstName C1
SYMATTR Value 100µ
SYMBOL Opamps\\ADA4625-2 1728 400 M0
WINDOW 3 -43 149 Left 2
SYMATTR InstName U2
SYMBOL npn 1536 -160 R0
SYMATTR InstName Q2
SYMATTR Value 2N2222
SYMBOL res 2528 448 R0
SYMATTR InstName R4
SYMATTR Value 1
SYMBOL voltage 3632 352 R0
WINDOW 123 0 0 Left 0
WINDOW 39 0 0 Left 0
SYMATTR InstName V4
SYMATTR Value PULSE(-0.5 0.5 5m 100n 100n 10m 20m)
SYMBOL pnp 1536 128 M180
SYMATTR InstName Q3
SYMATTR Value 2SAR542P
SYMBOL voltage 1856 608 R0
WINDOW 123 0 0 Left 0
WINDOW 39 0 0 Left 0
SYMATTR InstName V5
SYMATTR Value 0.1
SYMBOL current 1360 -144 R0
WINDOW 123 0 0 Left 0
WINDOW 39 0 0 Left 0
SYMATTR InstName I1
SYMATTR Value 1m
SYMBOL schottky 1184 480 R270
WINDOW 0 32 32 VTop 2
WINDOW 3 0 32 VBottom 2
SYMATTR InstName D1
SYMATTR Value BAT54
SYMATTR Description Diode
SYMATTR Type diode
SYMBOL njf 3200 160 R0
SYMATTR InstName J1
SYMATTR Value J211
SYMBOL njf 1392 512 R270
SYMATTR InstName J2
SYMATTR Value J202
SYMBOL voltage 2848 256 R0
WINDOW 123 0 0 Left 0
WINDOW 39 0 0 Left 0
SYMATTR InstName V6
SYMATTR Value 10
SYMBOL res 2832 112 R0
SYMATTR InstName R5
SYMATTR Value 1
SYMBOL res 3232 256 R0
SYMATTR InstName R6
SYMATTR Value 950
SYMBOL Opamps\\ADA4625-2 1760 960 M0
WINDOW 3 -61 -34 Left 2
SYMATTR InstName U4
SYMBOL schottky 1248 1040 R270
WINDOW 0 32 32 VTop 2
WINDOW 3 0 32 VBottom 2
SYMATTR InstName D2
SYMATTR Value BAT54
SYMATTR Description Diode
SYMATTR Type diode
SYMBOL voltage 1904 1248 R0
WINDOW 123 0 0 Left 0
WINDOW 39 0 0 Left 0
SYMATTR InstName V7
SYMATTR Value PULSE(0 10 0 10m 10m)
SYMBOL res 1888 1120 R0
SYMATTR InstName R7
SYMATTR Value 1k
SYMBOL cap 1824 1136 R90
WINDOW 0 0 32 VBottom 2
WINDOW 3 32 32 VTop 2
SYMATTR InstName C3
SYMATTR Value 1n
SYMBOL njf 1376 1072 R270
SYMATTR InstName J3
SYMATTR Value J211
SYMBOL res 2048 432 R90
WINDOW 0 0 56 VBottom 2
WINDOW 3 32 56 VTop 2
SYMATTR InstName R8
SYMATTR Value 10k
SYMBOL cap 1776 336 R90
WINDOW 0 0 32 VBottom 2
WINDOW 3 32 32 VTop 2
SYMATTR InstName C4
SYMATTR Value 2n
SYMBOL res 1728 336 R90
WINDOW 0 0 56 VBottom 2
WINDOW 3 32 56 VTop 2
SYMATTR InstName R9
SYMATTR Value 2k
SYMBOL res 2080 992 R90
WINDOW 0 0 56 VBottom 2
WINDOW 3 32 56 VTop 2
SYMATTR InstName R10
SYMATTR Value 10k
SYMBOL Opamps\\ADA4625-2 1552 2640 M0
SYMATTR InstName U5
SYMBOL voltage 1680 2848 R0
WINDOW 123 0 0 Left 0
WINDOW 39 0 0 Left 0
SYMATTR InstName V8
SYMATTR Value -0.5
SYMBOL schottky 1408 2688 R90
WINDOW 0 0 32 VBottom 2
WINDOW 3 32 32 VTop 2
SYMATTR InstName D3
SYMATTR Value BAT54
SYMATTR Description Diode
SYMATTR Type diode
SYMBOL njf 1216 2752 R270
SYMATTR InstName J4
SYMATTR Value J202
SYMBOL res 1728 2672 R90
WINDOW 0 0 56 VBottom 2
WINDOW 3 32 56 VTop 2
SYMATTR InstName R11
SYMATTR Value 10k
SYMBOL cap 1600 2576 R90
WINDOW 0 0 32 VBottom 2
WINDOW 3 32 32 VTop 2
SYMATTR InstName C5
SYMATTR Value 2n
SYMBOL res 1552 2576 R90
WINDOW 0 0 56 VBottom 2
WINDOW 3 32 56 VTop 2
SYMATTR InstName R12
SYMATTR Value 2k
SYMBOL Opamps\\AD8220 2304 1008 R180
SYMATTR InstName U6
SYMBOL res 1744 1136 R90
WINDOW 0 0 56 VBottom 2
WINDOW 3 32 56 VTop 2
SYMATTR InstName R13
SYMATTR Value 2k
SYMBOL cap 2992 240 R0
SYMATTR InstName C6
SYMATTR Value 10n
SYMBOL res 1216 1008 R90
WINDOW 0 0 56 VBottom 2
WINDOW 3 32 56 VTop 2
SYMATTR InstName R14
SYMATTR Value 0
SYMBOL res 1584 1008 R90
WINDOW 0 0 56 VBottom 2
WINDOW 3 32 56 VTop 2
SYMATTR InstName R15
SYMATTR Value 700
SYMBOL pnp 1504 304 R0
SYMATTR InstName Q4
SYMBOL Misc\\EuropeanResistor 2560 112 M0
SYMATTR InstName RL1
SYMATTR Value r=if(time>1.5m&time<3.5m,1,1k)
TEXT -136 296 Left 2 !.tran 10m
